# CIF file created by FINDSYM, version 7.1.3

data_findsym-output
_audit_creation_method FINDSYM

_cell_length_a    13.1009200000
_cell_length_b    8.8440710000
_cell_length_c    8.2187970000
_cell_angle_alpha 90.0000000000
_cell_angle_beta  116.1462330000
_cell_angle_gamma 90.0000000000
_cell_volume      854.8306538835

_symmetry_space_group_name_H-M "C 1 2/c 1"
_symmetry_Int_Tables_number 15
_space_group.reference_setting '015:-C 2yc'
_space_group.transform_Pp_abc a,b,c;0,0,0

loop_
_space_group_symop_id
_space_group_symop_operation_xyz
1 x,y,z
2 -x,y,-z+1/2
3 -x,-y,-z
4 x,-y,z+1/2
5 x+1/2,y+1/2,z
6 -x+1/2,y+1/2,-z+1/2
7 -x+1/2,-y+1/2,-z
8 x+1/2,-y+1/2,z+1/2

loop_
_atom_site_label
_atom_site_type_symbol
_atom_site_symmetry_multiplicity
_atom_site_Wyckoff_label
_atom_site_fract_x
_atom_site_fract_y
_atom_site_fract_z
_atom_site_occupancy
_atom_site_fract_symmform
Mn1 Mn   4 d 0.25000 0.25000 0.50000 1.00000 0,0,0    
O1  O    8 f 0.16838 0.45116 0.54616 1.00000 Dx,Dy,Dz 
O2  O    8 f 0.29492 0.15304 0.77116 1.00000 Dx,Dy,Dz 
O3  O    8 f 0.41133 0.37859 0.63669 1.00000 Dx,Dy,Dz 
C1  C    4 e 0.00000 0.18835 0.25000 1.00000 0,Dy,0   
C2  C    8 f 0.71004 0.01217 0.70116 1.00000 Dx,Dy,Dz 
C3  C    4 e 0.00000 0.73014 0.25000 1.00000 0,Dy,0   
H1  H    4 e 0.00000 0.31354 0.25000 1.00000 0,Dy,0   
H2  H    8 f 0.25289 0.43895 0.82167 1.00000 Dx,Dy,Dz 
H3  H    8 f 0.62207 0.23898 0.51252 1.00000 Dx,Dy,Dz 
H4  H    8 f 0.57670 0.41661 0.39783 1.00000 Dx,Dy,Dz 
H5  H    4 e 0.00000 0.60663 0.25000 1.00000 0,Dy,0   
N1  N    8 f 0.57095 0.30002 0.39783 1.00000 Dx,Dy,Dz 