# CIF file created by FINDSYM, version 7.1.3

data_findsym-output
_audit_creation_method FINDSYM

_cell_length_a    8.8220300000
_cell_length_b    8.1180890000
_cell_length_c    11.7334650000
_cell_angle_alpha 90.0000000000
_cell_angle_beta  90.0000000000
_cell_angle_gamma 90.0000000000
_cell_volume      840.3275861944

_symmetry_space_group_name_H-M "P n a 21"
_symmetry_Int_Tables_number 33
_space_group.reference_setting '033:P 2c -2n'
_space_group.transform_Pp_abc a,b,c;0,0,0

loop_
_space_group_symop_id
_space_group_symop_operation_xyz
1 x,y,z
2 -x,-y,z+1/2
3 -x+1/2,y+1/2,z+1/2
4 x+1/2,-y+1/2,z

loop_
_atom_site_label
_atom_site_type_symbol
_atom_site_symmetry_multiplicity
_atom_site_Wyckoff_label
_atom_site_fract_x
_atom_site_fract_y
_atom_site_fract_z
_atom_site_occupancy
_atom_site_fract_symmform
Mg1 Mg   4 a 0.53602  0.50305  0.49987 1.00000 Dx,Dy,Dz 
O1  O    4 a 0.32671  0.40346  0.56013 1.00000 Dx,Dy,Dz 
O2  O    4 a 0.15117  0.20268  0.56140 1.00000 Dx,Dy,Dz 
O3  O    4 a 0.42620  0.71162  0.43618 1.00000 Dx,Dy,Dz 
O4  O    4 a 0.24182  -0.09657 0.43517 1.00000 Dx,Dy,Dz 
O5  O    4 a 0.55293  0.62568  0.65892 1.00000 Dx,Dy,Dz 
O6  O    4 a 0.49980  0.61878  0.84611 1.00000 Dx,Dy,Dz 
C1  C    4 a 0.27330  0.26539  0.52641 1.00000 Dx,Dy,Dz 
C2  C    4 a 0.31196  0.78113  0.47879 1.00000 Dx,Dy,Dz 
C3  C    4 a 0.51169  0.55149  0.74954 1.00000 Dx,Dy,Dz 
C4  C    4 a -0.02386 0.45494  0.71469 1.00000 Dx,Dy,Dz 
C5  C    4 a 0.87103  0.50080  0.81120 1.00000 Dx,Dy,Dz 
H1  H    4 a 0.34124  0.19806  0.46230 1.00000 Dx,Dy,Dz 
H2  H    4 a 0.26751  0.73475  0.56102 1.00000 Dx,Dy,Dz 
H3  H    4 a 0.48424  0.41878  0.74262 1.00000 Dx,Dy,Dz 
H4  H    4 a -0.06791 0.49548  0.63193 1.00000 Dx,Dy,Dz 
H5  H    4 a -0.00575 0.32202  0.70984 1.00000 Dx,Dy,Dz 
H6  H    4 a -0.07943 0.46715  0.89369 1.00000 Dx,Dy,Dz 
H7  H    4 a 0.76538  0.43158  0.80225 1.00000 Dx,Dy,Dz 
H8  H    4 a 0.84531  0.63271  0.81189 1.00000 Dx,Dy,Dz 
H9  H    4 a 0.11946  0.65806  0.72263 1.00000 Dx,Dy,Dz 
H10 H    4 a 0.20266  0.48780  0.66377 1.00000 Dx,Dy,Dz 
H11 H    4 a 0.17632  0.49492  0.80688 1.00000 Dx,Dy,Dz 
N1  N    4 a 0.12949  0.53072  0.72842 1.00000 Dx,Dy,Dz 
