_cell_length_a                         12.668500
_cell_length_b                         12.668500
_cell_length_c                         8.537400
_cell_angle_alpha                      90.000000
_cell_angle_beta                       90.000000
_cell_angle_gamma                      120.000000
_space_group_IT_number                 1
 loop_
 _space_group_symop_operation_xyz 
 'x, y, z' 
 loop_ 
 _atom_site_label 
 _atom_site_occupancy 
 _atom_site_fract_x 
 _atom_site_fract_y
 _atom_site_fract_z
 _atom_site_adp_type
 _atom_site_U_iso_or_equiv
 _atom_site_type_symbol
 Mn1    1.0    0.165359    0.161271    0.756040 Biso 1.000000  Mn    
 Mn2    1.0    0.825912    0.494641    0.756040 Biso 1.000000  Mn    
 Mn3    1.0    0.498729    0.834088    0.756040 Biso 1.000000  Mn    
 Mn4    1.0    0.494641    0.498729    0.256040 Biso 1.000000  Mn    
 Mn5    1.0    0.834088    0.165359    0.256040 Biso 1.000000  Mn    
 Mn6    1.0    0.161271    0.825912    0.256040 Biso 1.000000  Mn    
 O1     1.0    0.102366    0.261866    0.900632 Biso 1.000000  O     
 O2     1.0    0.989500    0.557634    0.900632 Biso 1.000000  O     
 O3     1.0    0.398134    0.670500    0.900632 Biso 1.000000  O     
 O4     1.0    0.557634    0.398134    0.400632 Biso 1.000000  O     
 O5     1.0    0.670500    0.102366    0.400632 Biso 1.000000  O     
 O6     1.0    0.261866    0.989500    0.400632 Biso 1.000000  O     
 O7     1.0    0.994540    0.258394    0.108552 Biso 1.000000  O     
 O8     1.0    0.093854    0.665460    0.108552 Biso 1.000000  O     
 O9     1.0    0.401606    0.566146    0.108552 Biso 1.000000  O     
 O10    1.0    0.665460    0.401606    0.608552 Biso 1.000000  O     
 O11    1.0    0.566146    0.994540    0.608552 Biso 1.000000  O     
 O12    1.0    0.258394    0.093854    0.608552 Biso 1.000000  O     
 O13    1.0    0.329259    0.228576    0.899476 Biso 1.000000  O     
 O14    1.0    0.729317    0.330741    0.899476 Biso 1.000000  O     
 O15    1.0    0.431424    0.930683    0.899476 Biso 1.000000  O     
 O16    1.0    0.330741    0.431424    0.399476 Biso 1.000000  O     
 O17    1.0    0.930683    0.329259    0.399476 Biso 1.000000  O     
 O18    1.0    0.228576    0.729317    0.399476 Biso 1.000000  O     
 O19    1.0    0.431456    0.338109    0.106876 Biso 1.000000  O     
 O20    1.0    0.736653    0.228544    0.106876 Biso 1.000000  O     
 O21    1.0    0.321891    0.923347    0.106876 Biso 1.000000  O     
 O22    1.0    0.228544    0.321891    0.606876 Biso 1.000000  O     
 O23    1.0    0.923347    0.431456    0.606876 Biso 1.000000  O     
 O24    1.0    0.338109    0.736653    0.606876 Biso 1.000000  O     
 O25    1.0    0.071504    1.002533    0.908580 Biso 1.000000  O     
 O26    1.0    0.761029    0.588496    0.908580 Biso 1.000000  O     
 O27    1.0    0.657467    0.898971    0.908580 Biso 1.000000  O     
 O28    1.0    0.588496    0.657467    0.408580 Biso 1.000000  O     
 O29    1.0    0.898971    0.071504    0.408580 Biso 1.000000  O     
 O30    1.0    1.002533    0.761029    0.408580 Biso 1.000000  O     
 O31    1.0    0.061136    0.891299    0.116140 Biso 1.000000  O     
 O32    1.0    0.660163    0.598864    0.116140 Biso 1.000000  O     
 O33    1.0    0.768701   -0.000163    0.116140 Biso 1.000000  O     
 O34    1.0    0.598864    0.768701    0.616140 Biso 1.000000  O     
 O35    1.0   -0.000163    0.061136    0.616140 Biso 1.000000  O     
 O36    1.0    0.891299    0.660163    0.616140 Biso 1.000000  O     
 C1     1.0    0.018307    0.209630   -0.003560 Biso 1.000000  C     
 C2     1.0    0.021323    0.641693   -0.003560 Biso 1.000000  C     
 C3     1.0    0.450370    0.638677   -0.003560 Biso 1.000000  C     
 C4     1.0    0.641693    0.450370    0.496440 Biso 1.000000  C     
 C5     1.0    0.638677    0.018307    0.496440 Biso 1.000000  C     
 C6     1.0    0.209630    0.021323    0.496440 Biso 1.000000  C     
 C7     1.0    0.360225    0.313335   -0.006680 Biso 1.000000  C     
 C8     1.0    0.783110    0.299775   -0.006680 Biso 1.000000  C     
 C9     1.0    0.346665    0.876890   -0.006680 Biso 1.000000  C     
 C10    1.0    0.299775    0.346665    0.493320 Biso 1.000000  C     
 C11    1.0    0.876890    0.360225    0.493320 Biso 1.000000  C     
 C12    1.0    0.313335    0.783110    0.493320 Biso 1.000000  C     
 C13    1.0    0.116600    0.980388    1.024840 Biso 1.000000  C     
 C14    1.0    0.693788    0.543400    1.024840 Biso 1.000000  C     
 C15    1.0    0.679612    0.966212    1.024840 Biso 1.000000  C     
 C16    1.0    0.543400    0.679612    0.524840 Biso 1.000000  C     
 C17    1.0    0.966212    0.116600    0.524840 Biso 1.000000  C     
 C18    1.0    0.980388    0.693788    0.524840 Biso 1.000000  C     
 H1     1.0    0.967170    0.124900   -0.016200 Biso 1.000000  H     
 H2     1.0    0.987730    0.692830   -0.016200 Biso 1.000000  H     
 H3     1.0    0.535100    0.672270   -0.016200 Biso 1.000000  H     
 H4     1.0    0.692830    0.535100    0.483800 Biso 1.000000  H     
 H5     1.0    0.672270    0.967170    0.483800 Biso 1.000000  H     
 H6     1.0    0.124900    0.987730    0.483800 Biso 1.000000  H     
 H7     1.0    0.326890    0.364390   -0.022040 Biso 1.000000  H     
 H8     1.0    0.867500    0.333110   -0.022040 Biso 1.000000  H     
 H9     1.0    0.295610    0.792500   -0.022040 Biso 1.000000  H     
 H10    1.0    0.333110    0.295610    0.477960 Biso 1.000000  H     
 H11    1.0    0.792500    0.326890    0.477960 Biso 1.000000  H     
 H12    1.0    0.364390    0.867500    0.477960 Biso 1.000000  H     
 H13    1.0    0.198500    1.034530    1.046040 Biso 1.000000  H     
 H14    1.0    0.666030    0.461500    1.046040 Biso 1.000000  H     
 H15    1.0    0.625470   -0.006030    1.046040 Biso 1.000000  H     
 H16    1.0    0.461500    0.625470    0.546040 Biso 1.000000  H     
 H17    1.0   -0.006030    0.198500    0.546040 Biso 1.000000  H     
 H18    1.0    1.034530    0.666030    0.546040 Biso 1.000000  H     
 H19    1.0    0.089367    0.456280    0.674226 Biso 1.000000  H     
 H20    1.0    0.196083    0.449753    0.705820 Biso 1.000000  H     
 H21    1.0    0.206246    0.561252    0.654875 Biso 1.000000  H     
 H22    1.0    0.571765    0.188575    0.182389 Biso 1.000000  H     
 H23    1.0    0.465049    0.195102    0.150795 Biso 1.000000  H     
 H24    1.0    0.454886    0.083603    0.201739 Biso 1.000000  H     
 H25    1.0    0.161712    0.518346    0.817162 Biso 1.000000  H     
 H26    1.0    0.495046    0.185012    0.317162 Biso 1.000000  H     
 H27    1.0    0.533922    0.117047    0.709015 Biso 1.000000  H     
 H28    1.0    0.539977    0.231225    0.656374 Biso 1.000000  H     
 H29    1.0    0.420395    0.118786    0.674166 Biso 1.000000  H     
 H30    1.0    0.128939    0.527660    0.150688 Biso 1.000000  H     
 H31    1.0    0.122884    0.413482    0.203329 Biso 1.000000  H     
 H32    1.0    0.242466    0.525920    0.185537 Biso 1.000000  H     
 H33    1.0    0.492741    0.184320    0.824412 Biso 1.000000  H     
 H34    1.0    0.159407    0.517654    0.324412 Biso 1.000000  H     
 H35    1.0    0.846207    0.908376    0.308231 Biso 1.000000  H     
 H36    1.0    0.755091    0.780937    0.343516 Biso 1.000000  H     
 H37    1.0    0.885830    0.822920    0.360436 Biso 1.000000  H     
 H38    1.0    0.811878    0.766446    0.866558 Biso 1.000000  H     
 H39    1.0    0.902994    0.893885    0.831273 Biso 1.000000  H     
 H40    1.0    0.772255    0.851902    0.814353 Biso 1.000000  H     
 H41    1.0    0.832707    0.809047    0.198731 Biso 1.000000  H     
 H42    1.0    0.832707    0.809047    0.698731 Biso 1.000000  H     
 N1     1.0    0.163333    0.496668    0.714257 Biso 1.000000  N     
 N2     1.0    0.496667    0.163334    0.214257 Biso 1.000000  N     
 N3     1.0    0.496667    0.163334    0.718464 Biso 1.000000  N     
 N4     1.0    0.163333    0.496668    0.218464 Biso 1.000000  N     
 N5     1.0    0.830000    0.829999    0.301159 Biso 1.000000  N     
 N6     1.0    0.830000    0.829999    0.801159 Biso 1.000000  N     
