# CIF file created by FINDSYM, version 7.1.3

data_findsym-output
_audit_creation_method FINDSYM

_cell_length_a    8.3877830000
_cell_length_b    11.9304680000
_cell_length_c    8.4230640000
_cell_angle_alpha 90.0000000000
_cell_angle_beta  90.0000000000
_cell_angle_gamma 90.0000000000
_cell_volume      842.8975026033

_symmetry_space_group_name_H-M "P 21/n 21/m 21/a"
_symmetry_Int_Tables_number 62
_space_group.reference_setting '062:-P 2ac 2n'
_space_group.transform_Pp_abc a,b,c;0,0,0

loop_
_space_group_symop_id
_space_group_symop_operation_xyz
1 x,y,z
2 x+1/2,-y+1/2,-z+1/2
3 -x,y+1/2,-z
4 -x+1/2,-y,z+1/2
5 -x,-y,-z
6 -x+1/2,y+1/2,z+1/2
7 x,-y+1/2,z
8 x+1/2,y,-z+1/2

loop_
_atom_site_label
_atom_site_type_symbol
_atom_site_symmetry_multiplicity
_atom_site_Wyckoff_label
_atom_site_fract_x
_atom_site_fract_y
_atom_site_fract_z
_atom_site_occupancy
_atom_site_fract_symmform
Mn1 Mn   4 b 0.00000  0.00000  0.50000  1.00000 0,0,0    
O1  O    8 d 0.09462  0.07581  0.71500  1.00000 Dx,Dy,Dz 
O2  O    8 d 0.26260  0.06317  -0.07797 1.00000 Dx,Dy,Dz 
O3  O    8 d -0.03024 0.84375  0.63241  1.00000 Dx,Dy,Dz 
C1  C    8 d 0.21437  0.03410  0.78400  1.00000 Dx,Dy,Dz 
C2  C    4 c 0.01599  0.25000  0.43771  1.00000 Dx,0,Dz  
C3  C    4 c -0.08035 0.25000  -0.02456 1.00000 Dx,0,Dz  
H1  H    8 d 0.28351  -0.03186 0.72247  1.00000 Dx,Dy,Dz 
H2  H    4 c -0.00901 0.25000  0.56682  1.00000 Dx,0,Dz  
H3  H    4 c 0.08958  0.25000  0.15382  1.00000 Dx,0,Dz  
H4  H    8 d 0.14903  0.17856  -0.01014 1.00000 Dx,Dy,Dz 
H5  H    4 c -0.08153 0.25000  0.84582  1.00000 Dx,0,Dz  
H6  H    8 d 0.85969  0.17495  0.02019  1.00000 Dx,Dy,Dz 
N1  N    4 c 0.08777  0.25000  0.03092  1.00000 Dx,0,Dz  