_cell_length_a                         8.242522
_cell_length_b                         12.229819
_cell_length_c                         8.641561
_cell_angle_alpha                      96.702248
_cell_angle_beta                       90.000000
_cell_angle_gamma                      90.000000
_space_group_IT_number                 1
 loop_
 _space_group_symop_operation_xyz 
 'x, y, z' 
 loop_ 
 _atom_site_label 
 _atom_site_occupancy 
 _atom_site_fract_x 
 _atom_site_fract_y
 _atom_site_fract_z
 _atom_site_adp_type
 _atom_site_U_iso_or_equiv
 _atom_site_type_symbol
 Zn1    1.0    0.251896    1.002736    0.751794 Biso 1.000000  Zn    
 Zn2    1.0    0.748104    1.002736    0.251794 Biso 1.000000  Zn    
 Zn3    1.0    0.751896    0.502736    0.251794 Biso 1.000000  Zn    
 Zn4    1.0    0.248104    0.502736    0.751794 Biso 1.000000  Zn    
 O1     1.0    0.360014    0.162878    0.749158 Biso 1.000000  O     
 O2     1.0    0.639986    0.162878    0.249158 Biso 1.000000  O     
 O3     1.0    0.860014    0.662878    0.249158 Biso 1.000000  O     
 O4     1.0    0.139986    0.662878    0.749158 Biso 1.000000  O     
 O5     1.0    0.470242    0.558946    0.664896 Biso 1.000000  O     
 O6     1.0    0.529758    0.558946    0.164896 Biso 1.000000  O     
 O7     1.0    0.970242    0.058946    0.164896 Biso 1.000000  O     
 O8     1.0    0.029758    0.058946    0.664896 Biso 1.000000  O     
 O9     1.0    0.164988    0.054978    0.983874 Biso 1.000000  O     
 O10    1.0    0.835012    0.054978    0.483874 Biso 1.000000  O     
 O11    1.0    0.664988    0.554978    0.483874 Biso 1.000000  O     
 O12    1.0    0.335012    0.554978    0.983874 Biso 1.000000  O     
 O13    1.0    0.023722    0.452976    0.836286 Biso 1.000000  O     
 O14    1.0    0.976278    0.452976    0.336286 Biso 1.000000  O     
 O15    1.0    0.523722    0.952976    0.336286 Biso 1.000000  O     
 O16    1.0    0.476278    0.952976    0.836286 Biso 1.000000  O     
 O17    1.0    0.332408    0.954898    0.520584 Biso 1.000000  O     
 O18    1.0    0.667592    0.954898    0.020584 Biso 1.000000  O     
 O19    1.0    0.832408    0.454898    0.020584 Biso 1.000000  O     
 O20    1.0    0.167592    0.454898    0.520584 Biso 1.000000  O     
 O21    1.0    0.357956    0.345858    0.757208 Biso 1.000000  O     
 O22    1.0    0.642044    0.345858    0.257208 Biso 1.000000  O     
 O23    1.0    0.857956    0.845858    0.257208 Biso 1.000000  O     
 O24    1.0    0.142044    0.845858    0.757208 Biso 1.000000  O     
 C1     1.0    0.221390    0.774844    0.086198 Biso 1.000000  C     
 C2     1.0    0.778610    0.842288    0.770935 Biso 1.000000  C     
 C3     1.0    0.721390    0.342288    0.770935 Biso 1.000000  C     
 C4     1.0    0.278610    0.274844    0.086198 Biso 1.000000  C     
 C5     1.0    0.285350    0.254332    0.752994 Biso 1.000000  C     
 C6     1.0    0.714650    0.254332    0.252994 Biso 1.000000  C     
 C7     1.0    0.785350    0.754332    0.252994 Biso 1.000000  C     
 C8     1.0    0.214650    0.754332    0.752994 Biso 1.000000  C     
 C9     1.0    0.025496    0.028462    0.030952 Biso 1.000000  C     
 C10    1.0    0.974504    0.028462    0.530952 Biso 1.000000  C     
 C11    1.0    0.525496    0.528462    0.530952 Biso 1.000000  C     
 C12    1.0    0.474504    0.528462    0.030952 Biso 1.000000  C     
 C13    1.0    0.476016    0.970902    0.475732 Biso 1.000000  C     
 C14    1.0    0.523984    0.970902    0.975732 Biso 1.000000  C     
 C15    1.0    0.976016    0.470902    0.975732 Biso 1.000000  C     
 C16    1.0    0.023984    0.470902    0.475732 Biso 1.000000  C     
 C17    1.0    0.262990    0.784909    0.370732 Biso 1.000000  C     
 C18    1.0    0.737010    0.653996    0.840702 Biso 1.000000  C     
 C19    1.0    0.762990    0.153996    0.840702 Biso 1.000000  C     
 C20    1.0    0.237010    0.284909    0.370732 Biso 1.000000  C     
 H1     1.0    0.351750    0.772797    0.062243 Biso 1.000000  H     
 H2     1.0    0.648250    0.857635    0.763435 Biso 1.000000  H     
 H3     1.0    0.851750    0.357635    0.763435 Biso 1.000000  H     
 H4     1.0    0.148250    0.272797    0.062243 Biso 1.000000  H     
 H5     1.0    0.154430    0.729946   -0.010181 Biso 1.000000  H     
 H6     1.0    0.845570    0.888609    0.691077 Biso 1.000000  H     
 H7     1.0    0.654430    0.388609    0.691077 Biso 1.000000  H     
 H8     1.0    0.345570    0.229946   -0.010181 Biso 1.000000  H     
 H9     1.0    0.180790    0.860402    0.103792 Biso 1.000000  H     
 H10    1.0    0.819210    0.866384    0.890356 Biso 1.000000  H     
 H11    1.0    0.680790    0.366384    0.890356 Biso 1.000000  H     
 H12    1.0    0.319210    0.360402    0.103792 Biso 1.000000  H     
 H13    1.0    0.151010    0.252928    0.752604 Biso 1.000000  H     
 H14    1.0    0.848990    0.252928    0.252604 Biso 1.000000  H     
 H15    1.0    0.651010    0.752928    0.252604 Biso 1.000000  H     
 H16    1.0    0.348990    0.752928    0.752604 Biso 1.000000  H     
 H17    1.0    0.450222    0.476374    0.449296 Biso 1.000000  H     
 H18    1.0    0.549778    0.476374    0.949296 Biso 1.000000  H     
 H19    1.0    0.950222   -0.023626    0.949296 Biso 1.000000  H     
 H20    1.0    0.049778   -0.023626    0.449296 Biso 1.000000  H     
 H21    1.0    0.064052    0.501774    0.064276 Biso 1.000000  H     
 H22    1.0    0.935948    0.501774    0.564276 Biso 1.000000  H     
 H23    1.0    0.564052    0.001774    0.564276 Biso 1.000000  H     
 H24    1.0    0.435948    0.001774    0.064276 Biso 1.000000  H     
 H25    1.0    0.241900    0.642504    0.211821 Biso 1.000000  H     
 H26    1.0    0.758100    0.701600    0.616365 Biso 1.000000  H     
 H27    1.0    0.741900    0.201600    0.616365 Biso 1.000000  H     
 H28    1.0    0.258100    0.142504    0.211821 Biso 1.000000  H     
 H29    1.0    0.065480    0.715246    0.248680 Biso 1.000000  H     
 H30    1.0    0.934520    0.707268    0.722217 Biso 1.000000  H     
 H31    1.0    0.565480    0.207268    0.722217 Biso 1.000000  H     
 H32    1.0    0.434520    0.215246    0.248680 Biso 1.000000  H     
 H33    1.0    0.235020    0.742479    0.472034 Biso 1.000000  H     
 H34    1.0    0.764980    0.567598    0.803182 Biso 1.000000  H     
 H35    1.0    0.735020    0.067598    0.803182 Biso 1.000000  H     
 H36    1.0    0.264980    0.242479    0.472034 Biso 1.000000  H     
 H37    1.0    0.394570    0.789021    0.356171 Biso 1.000000  H     
 H38    1.0    0.605430    0.665579    0.843402 Biso 1.000000  H     
 H39    1.0    0.894570    0.165579    0.843402 Biso 1.000000  H     
 H40    1.0    0.105430    0.289021    0.356171 Biso 1.000000  H     
 H41    1.0    0.212160    0.868062    0.383683 Biso 1.000000  H     
 H42    1.0    0.787840    0.680222    0.955948 Biso 1.000000  H     
 H43    1.0    0.712160    0.180222    0.955948 Biso 1.000000  H     
 H44    1.0    0.287840    0.368062    0.383683 Biso 1.000000  H     
 N1     1.0    0.191440    0.722366    0.229795 Biso 1.000000  N     
 N2     1.0    0.808560    0.723043    0.728142 Biso 1.000000  N     
 N3     1.0    0.691440    0.223043    0.728142 Biso 1.000000  N     
 N4     1.0    0.308560    0.222366    0.229795 Biso 1.000000  N     
