
#======================================================================
# CRYSTAL DATA
#----------------------------------------------------------------------
data_VESTA_phase_1

_chemical_name_common                  'C3 H7 Fe N O7                         '
_cell_length_a                         7.699968
_cell_length_b                         7.977380
_cell_length_c                         13.050899
_cell_angle_alpha                      90.000000
_cell_angle_beta                       90.000000
_cell_angle_gamma                      89.999962
_cell_volume                           801.658905
_space_group_name_H-M_alt              'P 1'
_space_group_IT_number                 1

loop_
_space_group_symop_operation_xyz
   'x, y, z'

loop_
   _atom_site_label
   _atom_site_occupancy
   _atom_site_fract_x
   _atom_site_fract_y
   _atom_site_fract_z
   _atom_site_adp_type
   _atom_site_B_iso_or_equiv
   _atom_site_type_symbol
   Fe1         1.0     0.560568     0.492023     0.085132    Biso  1.000000 Fe
   Fe2         1.0     0.939432     0.507977     0.585132    Biso  1.000000 Fe
   Fe3         1.0     0.439433     0.992023     0.414869    Biso  1.000000 Fe
   Fe4         1.0     0.060567     0.007977     0.914869    Biso  1.000000 Fe
   C1          1.0     0.417674     0.220617     0.236277    Biso  1.000000 C
   C2          1.0     0.082326     0.779383     0.736277    Biso  1.000000 C
   C3          1.0     0.582325     0.720618     0.263724    Biso  1.000000 C
   C4          1.0     0.917675     0.279382     0.763724    Biso  1.000000 C
   C5          1.0     0.316222     0.782901     0.027957    Biso  1.000000 C
   C6          1.0     0.183778     0.217099     0.527956    Biso  1.000000 C
   C7          1.0     0.683780     0.282901     0.472043    Biso  1.000000 C
   C8          1.0     0.816220     0.717099     0.972043    Biso  1.000000 C
   C9          1.0     0.312975     0.278941     0.961085    Biso  1.000000 C
   C10         1.0     0.187025     0.721059     0.461085    Biso  1.000000 C
   C11         1.0     0.687026     0.778940     0.538917    Biso  1.000000 C
   C12         1.0     0.812974     0.221060     0.038917    Biso  1.000000 C
   H1          1.0     0.543452     0.159184     0.220850    Biso  1.000000 H
   H2          1.0     0.956548     0.840816     0.720850    Biso  1.000000 H
   H3          1.0     0.456548     0.659185     0.279151    Biso  1.000000 H
   H4          1.0     0.043452     0.340815     0.779151    Biso  1.000000 H
   H5          1.0     0.402971     0.809651     0.962220    Biso  1.000000 H
   H6          1.0     0.097029     0.190348     0.462220    Biso  1.000000 H
   H7          1.0     0.597028     0.309650     0.537780    Biso  1.000000 H
   H8          1.0     0.902972     0.690350     0.037780    Biso  1.000000 H
   H9          1.0     0.224556     0.298658     0.026782    Biso  1.000000 H
   H10         1.0     0.275444     0.701342     0.526782    Biso  1.000000 H
   H11         1.0     0.775444     0.798661     0.473218    Biso  1.000000 H
   H12         1.0     0.724556     0.201339     0.973218    Biso  1.000000 H
   H13         1.0     0.206705     0.453467     0.215515    Biso  1.000000 H
   H14         1.0     0.293295     0.546533     0.715515    Biso  1.000000 H
   H15         1.0     0.793296     0.953469     0.284485    Biso  1.000000 H
   H16         1.0     0.706704     0.046531     0.784485    Biso  1.000000 H
   H17         1.0     0.084416     0.253909     0.279504    Biso  1.000000 H
   H18         1.0     0.415585     0.746091     0.779504    Biso  1.000000 H
   H19         1.0     0.915586     0.753913     0.220495    Biso  1.000000 H
   H20         1.0     0.584414     0.246087     0.720495    Biso  1.000000 H
   H21         1.0     0.904363     0.322664     0.212047    Biso  1.000000 H
   H22         1.0     0.595637     0.677336     0.712047    Biso  1.000000 H
   H23         1.0     0.095637     0.822665     0.287952    Biso  1.000000 H
   H24         1.0     0.404363     0.177335     0.787952    Biso  1.000000 H
   H25         1.0     0.934110     0.377007     0.339219    Biso  1.000000 H
   H26         1.0     0.565890     0.622993     0.839219    Biso  1.000000 H
   H27         1.0     0.065889     0.877010     0.160781    Biso  1.000000 H
   H28         1.0     0.434111     0.122990     0.660781    Biso  1.000000 H
   O1          1.0     0.390617     0.361226     0.192596    Biso  1.000000 O
   O2          1.0     0.109383     0.638774     0.692596    Biso  1.000000 O
   O3          1.0     0.609380     0.861230     0.307404    Biso  1.000000 O
   O4          1.0     0.890620     0.138770     0.807404    Biso  1.000000 O
   O5          1.0     0.310385     0.149131     0.295620    Biso  1.000000 O
   O6          1.0     0.189615     0.850869     0.795621    Biso  1.000000 O
   O7          1.0     0.689615     0.649132     0.204381    Biso  1.000000 O
   O8          1.0     0.810385     0.350867     0.704381    Biso  1.000000 O
   O9          1.0     0.356853     0.666824     0.089036    Biso  1.000000 O
   O10         1.0     0.143147     0.333176     0.589036    Biso  1.000000 O
   O11         1.0     0.643145     0.166821     0.410963    Biso  1.000000 O
   O12         1.0     0.856855     0.833179     0.910963    Biso  1.000000 O
   O13         1.0     0.181266     0.873847     0.037524    Biso  1.000000 O
   O14         1.0     0.318734     0.126153     0.537524    Biso  1.000000 O
   O15         1.0     0.818735     0.373844     0.462475    Biso  1.000000 O
   O16         1.0     0.681265     0.626156     0.962475    Biso  1.000000 O
   O17         1.0     0.458754     0.349594     0.959680    Biso  1.000000 O
   O18         1.0     0.041246     0.650406     0.459680    Biso  1.000000 O
   O19         1.0     0.541243     0.849596     0.540321    Biso  1.000000 O
   O20         1.0     0.958757     0.150404     0.040321    Biso  1.000000 O
   O21         1.0     0.258773     0.182199     0.889311    Biso  1.000000 O
   O22         1.0     0.241227     0.817801     0.389311    Biso  1.000000 O
   O23         1.0     0.741227     0.682205     0.610688    Biso  1.000000 O
   O24         1.0     0.758773     0.317795     0.110688    Biso  1.000000 O
   O25         1.0     0.088033     0.497641     0.236410    Biso  1.000000 O
   O26         1.0     0.411967     0.502359     0.736410    Biso  1.000000 O
   O27         1.0     0.911966     0.997643     0.263590    Biso  1.000000 O
   O28         1.0     0.588034     0.002357     0.763590    Biso  1.000000 O
   N1          1.0     0.996499     0.352491     0.269241    Biso  1.000000 N
   N2          1.0     0.503501     0.647509     0.769241    Biso  1.000000 N
   N3          1.0     0.003500     0.852491     0.230759    Biso  1.000000 N
   N4          1.0     0.496500     0.147509     0.730759    Biso  1.000000 N
