
#======================================================================
# CRYSTAL DATA
#----------------------------------------------------------------------
data_VESTA_phase_1

_chemical_name_common                  'crystal                               '
_cell_length_a                         7.675571
_cell_length_b                         8.198633
_cell_length_c                         12.782085
_cell_angle_alpha                      90.000000
_cell_angle_beta                       90.000000
_cell_angle_gamma                      90.000000
_cell_volume                           804.366293
_space_group_name_H-M_alt              'P 1'
_space_group_IT_number                 1

loop_
_space_group_symop_operation_xyz
   'x, y, z'

loop_
   _atom_site_label
   _atom_site_occupancy
   _atom_site_fract_x
   _atom_site_fract_y
   _atom_site_fract_z
   _atom_site_adp_type
   _atom_site_B_iso_or_equiv
   _atom_site_type_symbol
   Fe1         1.0     0.528031     0.491168     0.080920    Biso  1.000000 Fe
   Fe2         1.0     0.971969     0.508832     0.580920    Biso  1.000000 Fe
   Fe3         1.0     0.471969     0.991168     0.419080    Biso  1.000000 Fe
   Fe4         1.0     0.028031     0.008832     0.919080    Biso  1.000000 Fe
   C1          1.0     0.446121     0.231003     0.244262    Biso  1.000000 C
   C2          1.0     0.053879     0.768997     0.744262    Biso  1.000000 C
   C3          1.0     0.553879     0.731003     0.255738    Biso  1.000000 C
   C4          1.0     0.946121     0.268997     0.755738    Biso  1.000000 C
   C5          1.0     0.259766     0.767081     0.029553    Biso  1.000000 C
   C6          1.0     0.240234     0.232919     0.529553    Biso  1.000000 C
   C7          1.0     0.740234     0.267081     0.470447    Biso  1.000000 C
   C8          1.0     0.759766     0.732919     0.970447    Biso  1.000000 C
   C9          1.0     0.304270     0.265672     0.963322    Biso  1.000000 C
   C10         1.0     0.195730     0.734328     0.463322    Biso  1.000000 C
   C11         1.0     0.695730     0.765672     0.536678    Biso  1.000000 C
   C12         1.0     0.804270     0.234328     0.036678    Biso  1.000000 C
   H1          1.0     0.583424     0.200504     0.226526    Biso  1.000000 H
   H2          1.0     0.916576     0.799496     0.726525    Biso  1.000000 H
   H3          1.0     0.416576     0.700504     0.273475    Biso  1.000000 H
   H4          1.0     0.083424     0.299496     0.773475    Biso  1.000000 H
   H5          1.0     0.349457     0.795018     0.964372    Biso  1.000000 H
   H6          1.0     0.150543     0.204982     0.464372    Biso  1.000000 H
   H7          1.0     0.650543     0.295018     0.535628    Biso  1.000000 H
   H8          1.0     0.849457     0.704982     0.035628    Biso  1.000000 H
   H9          1.0     0.201357     0.307336     0.017359    Biso  1.000000 H
   H10         1.0     0.298643     0.692664     0.517359    Biso  1.000000 H
   H11         1.0     0.798643     0.807336     0.482641    Biso  1.000000 H
   H12         1.0     0.701357     0.192664     0.982641    Biso  1.000000 H
   H13         1.0     0.149418     0.603391     0.169292    Biso  1.000000 H
   H14         1.0     0.350582     0.396609     0.669292    Biso  1.000000 H
   H15         1.0     0.850582     0.103391     0.330708    Biso  1.000000 H
   H16         1.0     0.649418     0.896609     0.830708    Biso  1.000000 H
   H17         1.0     0.141718     0.364038     0.236381    Biso  1.000000 H
   H18         1.0     0.358282     0.635962     0.736381    Biso  1.000000 H
   H19         1.0     0.858282     0.864038     0.263619    Biso  1.000000 H
   H20         1.0     0.641718     0.135962     0.763619    Biso  1.000000 H
   H21         1.0     0.930852     0.391078     0.190086    Biso  1.000000 H
   H22         1.0     0.569148     0.608922     0.690086    Biso  1.000000 H
   H23         1.0     0.069148     0.891078     0.309914    Biso  1.000000 H
   H24         1.0     0.430852     0.108922     0.809914    Biso  1.000000 H
   H25         1.0     0.976981     0.415648     0.320723    Biso  1.000000 H
   H26         1.0     0.523019     0.584352     0.820723    Biso  1.000000 H
   H27         1.0     0.023019     0.915648     0.179277    Biso  1.000000 H
   H28         1.0     0.476981     0.084352     0.679277    Biso  1.000000 H
   O1          1.0     0.377032     0.349241     0.195129    Biso  1.000000 O
   O2          1.0     0.122968     0.650759     0.695129    Biso  1.000000 O
   O3          1.0     0.622968     0.849241     0.304871    Biso  1.000000 O
   O4          1.0     0.877032     0.150759     0.804871    Biso  1.000000 O
   O5          1.0     0.365620     0.147169     0.312218    Biso  1.000000 O
   O6          1.0     0.134380     0.852831     0.812218    Biso  1.000000 O
   O7          1.0     0.634380     0.647169     0.187782    Biso  1.000000 O
   O8          1.0     0.865620     0.352831     0.687782    Biso  1.000000 O
   O9          1.0     0.288616     0.636417     0.081699    Biso  1.000000 O
   O10         1.0     0.211384     0.363583     0.581699    Biso  1.000000 O
   O11         1.0     0.711384     0.136417     0.418301    Biso  1.000000 O
   O12         1.0     0.788616     0.863583     0.918301    Biso  1.000000 O
   O13         1.0     0.134202     0.863108     0.047697    Biso  1.000000 O
   O14         1.0     0.365798     0.136892     0.547697    Biso  1.000000 O
   O15         1.0     0.865798     0.363108     0.452303    Biso  1.000000 O
   O16         1.0     0.634202     0.636892     0.952303    Biso  1.000000 O
   O17         1.0     0.450898     0.337309     0.964366    Biso  1.000000 O
   O18         1.0     0.049102     0.662691     0.464366    Biso  1.000000 O
   O19         1.0     0.549102     0.837309     0.535634    Biso  1.000000 O
   O20         1.0     0.950898     0.162691     0.035634    Biso  1.000000 O
   O21         1.0     0.268461     0.146581     0.903293    Biso  1.000000 O
   O22         1.0     0.231539     0.853419     0.403293    Biso  1.000000 O
   O23         1.0     0.731539     0.646581     0.596707    Biso  1.000000 O
   O24         1.0     0.768461     0.353419     0.096707    Biso  1.000000 O
   O25         1.0     0.062169     0.597543     0.229844    Biso  1.000000 O
   O26         1.0     0.437831     0.402457     0.729844    Biso  1.000000 O
   O27         1.0     0.937831     0.097543     0.270156    Biso  1.000000 O
   O28         1.0     0.562169     0.902457     0.770156    Biso  1.000000 O
   N1          1.0     0.025429     0.429805     0.245050    Biso  1.000000 N
   N2          1.0     0.474571     0.570195     0.745050    Biso  1.000000 N
   N3          1.0     0.974571     0.929805     0.254950    Biso  1.000000 N
   N4          1.0     0.525429     0.070195     0.754950    Biso  1.000000 N
