# CIF file created by FINDSYM, version 7.1.3

data_findsym-output
_audit_creation_method FINDSYM

_cell_length_a    12.5537300000
_cell_length_b    12.5537300000
_cell_length_c    8.7124800000
_cell_angle_alpha 90.0000000000
_cell_angle_beta  90.0000000000
_cell_angle_gamma 120.0000000000
_cell_volume      1189.0989440934

_symmetry_space_group_name_H-M "P 63"
_symmetry_Int_Tables_number 173
_space_group.reference_setting '173:P 6c'
_space_group.transform_Pp_abc a,b,c;0,0,0

loop_
_space_group_symop_id
_space_group_symop_operation_xyz
1 x,y,z
2 x-y,x,z+1/2
3 -y,x-y,z
4 -x,-y,z+1/2
5 -x+y,-x,z
6 y,-x+y,z+1/2

loop_
_atom_site_label
_atom_site_type_symbol
_atom_site_symmetry_multiplicity
_atom_site_Wyckoff_label
_atom_site_fract_x
_atom_site_fract_y
_atom_site_fract_z
_atom_site_occupancy
_atom_site_fract_symmform
Mn1 Mn   6 c 0.33667 0.32874 0.58817 1.00000 Dx,Dy,Dz 
O1  O    6 c 0.42469 0.25564 0.44160 1.00000 Dx,Dy,Dz 
O2  O    6 c 0.43364 0.15760 0.23043 1.00000 Dx,Dy,Dz 
O3  O    6 c 0.39924 0.49139 0.43666 1.00000 Dx,Dy,Dz 
O4  O    6 c 0.49765 0.60326 0.22847 1.00000 Dx,Dy,Dz 
O5  O    6 c 0.16650 0.22867 0.45450 1.00000 Dx,Dy,Dz 
O6  O    6 c 0.07222 0.24179 0.24205 1.00000 Dx,Dy,Dz 
C1  C    6 c 0.37677 0.18956 0.32230 1.00000 Dx,Dy,Dz 
C2  C    6 c 0.46472 0.51178 0.31642 1.00000 Dx,Dy,Dz 
C3  C    6 c 0.13237 0.28596 0.36616 1.00000 Dx,Dy,Dz 
H1  H    6 c 0.27895 0.15930 0.30001 1.00000 Dx,Dy,Dz 
H2  H    6 c 0.49546 0.44534 0.28920 1.00000 Dx,Dy,Dz 
H3  H    6 c 0.15618 0.38100 0.39619 1.00000 Dx,Dy,Dz 
H4  H    6 c 0.57658 0.30151 0.49625 1.00000 Dx,Dy,Dz 
H5  H    2 b 0.33333 0.66667 0.15196 1.00000 0,0,Dz   
H6  H    6 c 0.35862 0.60308 0.49205 1.00000 Dx,Dy,Dz 
H7  H    2 b 0.33333 0.66667 0.64795 1.00000 0,0,Dz   
H8  H    6 c 0.02968 0.08980 0.18558 1.00000 Dx,Dy,Dz 
H9  H    2 a 0.00000 0.00000 0.02995 1.00000 0,0,Dz   
N1  N    2 b 0.33333 0.66667 0.03462 1.00000 0,0,Dz   
N2  N    2 b 0.33333 0.66667 0.53051 1.00000 0,0,Dz   
N3  N    2 a 0.00000 0.00000 0.14733 1.00000 0,0,Dz   