# CIF file created by FINDSYM, version 7.1.3

data_findsym-output
_audit_creation_method FINDSYM

_cell_length_a    8.2381800000
_cell_length_b    11.6273800000
_cell_length_c    8.9085200000
_cell_angle_alpha 90.0000000000
_cell_angle_beta  90.0000000000
_cell_angle_gamma 90.0000000000
_cell_volume      853.3333169674

_symmetry_space_group_name_H-M "P 2/n 21/n 2/a"
_symmetry_Int_Tables_number 52
_space_group.reference_setting '052:-P 2a 2bc'
_space_group.transform_Pp_abc a,b,c;0,0,0

loop_
_space_group_symop_id
_space_group_symop_operation_xyz
1 x,y,z
2 x,-y+1/2,-z+1/2
3 -x+1/2,y+1/2,-z+1/2
4 -x+1/2,-y,z
5 -x,-y,-z
6 -x,y+1/2,z+1/2
7 x+1/2,-y+1/2,z+1/2
8 x+1/2,y,-z

loop_
_atom_site_label
_atom_site_type_symbol
_atom_site_symmetry_multiplicity
_atom_site_Wyckoff_label
_atom_site_fract_x
_atom_site_fract_y
_atom_site_fract_z
_atom_site_occupancy
_atom_site_fract_symmform
Ni1 Ni   4 d 0.73763  0.25000  0.25000  1.00000 Dx,0,0   
C1  C    4 c 0.25000  0.00000  0.69726  1.00000 0,0,Dz   
C2  C    8 e 0.03176  0.72185  0.48394  1.00000 Dx,Dy,Dz 
C3  C    4 c 0.25000  0.00000  0.24109  1.00000 0,0,Dz   
H1  H    4 c 0.25000  0.00000  0.82025  1.00000 0,0,Dz   
H2  H    8 e -0.07150 0.87887  0.74308  1.00000 Dx,Dy,Dz 
H3  H    8 e 0.83268  -0.08180 0.57015  1.00000 Dx,Dy,Dz 
H4  H    8 e 0.10296  0.79105  0.42993  1.00000 Dx,Dy,Dz 
H5  H    8 e 0.68590  0.06129  -0.03345 1.00000 Dx,Dy,Dz 
N1  N    8 e 0.84602  -0.07319 0.68402  1.00000 Dx,Dy,Dz 
N2  N    4 c 0.25000  0.00000  0.09146  1.00000 0,0,Dz   
O1  O    8 e 0.76367  -0.09586 0.37017  1.00000 Dx,Dy,Dz 
O2  O    8 e -0.08731 0.67858  0.41310  1.00000 Dx,Dy,Dz 
O3  O    8 e 0.07173  0.68901  0.61479  1.00000 Dx,Dy,Dz 
