# CIF file created by FINDSYM, version 7.1.3

data_findsym-output
_audit_creation_method FINDSYM

_cell_length_a    8.3479030000
_cell_length_b    11.7827460000
_cell_length_c    8.9798630000
_cell_angle_alpha 90.0000000000
_cell_angle_beta  90.0000000000
_cell_angle_gamma 90.0000000000
_cell_volume      883.2702862339

_symmetry_space_group_name_H-M "P 2/n 21/n 2/a"
_symmetry_Int_Tables_number 52
_space_group.reference_setting '052:-P 2a 2bc'
_space_group.transform_Pp_abc a,b,c;0,0,0

loop_
_space_group_symop_id
_space_group_symop_operation_xyz
1 x,y,z
2 x,-y+1/2,-z+1/2
3 -x+1/2,y+1/2,-z+1/2
4 -x+1/2,-y,z
5 -x,-y,-z
6 -x,y+1/2,z+1/2
7 x+1/2,-y+1/2,z+1/2
8 x+1/2,y,-z

loop_
_atom_site_label
_atom_site_type_symbol
_atom_site_symmetry_multiplicity
_atom_site_Wyckoff_label
_atom_site_fract_x
_atom_site_fract_y
_atom_site_fract_z
_atom_site_occupancy
_atom_site_fract_symmform
Fe1 Fe   4 d 0.24069  0.25000  0.25000  1.00000 Dx,0,0   
C1  C    4 c 0.25000  0.00000  0.18694  1.00000 0,0,Dz   
C2  C    8 e 0.03331  0.71900  -0.01838 1.00000 Dx,Dy,Dz 
C3  C    4 c 0.25000  0.00000  0.73450  1.00000 0,0,Dz   
H1  H    4 c 0.25000  0.00000  0.30949  1.00000 0,0,Dz   
H2  H    8 e 0.82783  -0.08229 0.07793  1.00000 Dx,Dy,Dz 
H3  H    8 e -0.08004 0.87598  0.24967  1.00000 Dx,Dy,Dz 
H4  H    8 e 0.11484  0.77847  -0.07626 1.00000 Dx,Dy,Dz 
H5  H    8 e 0.68931  0.06176  0.47170  1.00000 Dx,Dy,Dz 
N1  N    8 e 0.84001  -0.07519 0.19137  1.00000 Dx,Dy,Dz 
N2  N    4 c 0.25000  0.00000  0.58564  1.00000 0,0,Dz   
O1  O    8 e 0.76647  -0.09473 0.87882  1.00000 Dx,Dy,Dz 
O2  O    8 e -0.08675 0.68050  -0.08909 1.00000 Dx,Dy,Dz 
O3  O    8 e 0.06458  0.69272  0.11589  1.00000 Dx,Dy,Dz 

# end of cif
