# CIF file created by FINDSYM, version 7.1.3

data_findsym-output
_audit_creation_method FINDSYM

_cell_length_a    8.9908470000
_cell_length_b    7.8252750000
_cell_length_c    11.6593730000
_cell_angle_alpha 90.0000000000
_cell_angle_beta  90.0000000000
_cell_angle_gamma 90.0000000000
_cell_volume      820.3051008893

_symmetry_space_group_name_H-M "P n a 21"
_symmetry_Int_Tables_number 33
_space_group.reference_setting '033:P 2c -2n'
_space_group.transform_Pp_abc a,b,c;0,0,0

loop_
_space_group_symop_id
_space_group_symop_operation_xyz
1 x,y,z
2 -x,-y,z+1/2
3 -x+1/2,y+1/2,z+1/2
4 x+1/2,-y+1/2,z

loop_
_atom_site_label
_atom_site_type_symbol
_atom_site_symmetry_multiplicity
_atom_site_Wyckoff_label
_atom_site_fract_x
_atom_site_fract_y
_atom_site_fract_z
_atom_site_occupancy
_atom_site_fract_symmform
Mn1 Mn   4 a 0.04894  -0.00158 0.11117 1.00000 Dx,Dy,Dz 
O1  O    4 a 0.83179  -0.07434 0.18510 1.00000 Dx,Dy,Dz 
O2  O    4 a 0.64209  0.73971  0.18218 1.00000 Dx,Dy,Dz 
O3  O    4 a -0.04831 0.23332  0.03835 1.00000 Dx,Dy,Dz 
O4  O    4 a 0.76369  0.42193  0.03607 1.00000 Dx,Dy,Dz 
O5  O    4 a 0.07503  0.15340  0.27009 1.00000 Dx,Dy,Dz 
O6  O    4 a 0.00360  0.14535  0.45447 1.00000 Dx,Dy,Dz 
C1  C    4 a 0.77627  0.78217  0.15988 1.00000 Dx,Dy,Dz 
C2  C    4 a 0.83346  0.29591  0.07990 1.00000 Dx,Dy,Dz 
C3  C    4 a 0.04590  0.07345  0.36274 1.00000 Dx,Dy,Dz 
H1  H    4 a 0.84645  0.68710  0.11506 1.00000 Dx,Dy,Dz 
H2  H    4 a 0.78737  0.23824  0.15887 1.00000 Dx,Dy,Dz 
H3  H    4 a 0.05875  -0.06709 0.36237 1.00000 Dx,Dy,Dz 
H4  H    4 a 0.57825  0.12661  0.30167 1.00000 Dx,Dy,Dz 
H5  H    4 a 0.58200  -0.08944 0.27426 1.00000 Dx,Dy,Dz 
H6  H    4 a 0.64577  -0.01467 0.40198 1.00000 Dx,Dy,Dz 
H7  H    4 a 0.40292  0.10454  0.42812 1.00000 Dx,Dy,Dz 
H8  H    4 a 0.42109  0.89531  0.44208 1.00000 Dx,Dy,Dz 
N1  N    4 a 0.56577  0.00393  0.33747 1.00000 Dx,Dy,Dz 
N2  N    4 a 0.41575  -0.00734 0.38275 1.00000 Dx,Dy,Dz 