# CIF file created by FINDSYM, version 7.1.3

data_findsym-output
_audit_creation_method FINDSYM

_cell_length_a    14.3541930000
_cell_length_b    8.3905320000
_cell_length_c    8.8582740000
_cell_angle_alpha 90.0000000000
_cell_angle_beta  120.2321170000
_cell_angle_gamma 90.0000000000
_cell_volume      921.7803838306

_symmetry_space_group_name_H-M "C 1 c 1"
_symmetry_Int_Tables_number 9
_space_group.reference_setting '009:C -2yc'
_space_group.transform_Pp_abc a,b,c;0,0,0

loop_
_space_group_symop_id
_space_group_symop_operation_xyz
1 x,y,z
2 x,-y,z+1/2
3 x+1/2,y+1/2,z
4 x+1/2,-y+1/2,z+1/2

loop_
_atom_site_label
_atom_site_type_symbol
_atom_site_symmetry_multiplicity
_atom_site_Wyckoff_label
_atom_site_fract_x
_atom_site_fract_y
_atom_site_fract_z
_atom_site_occupancy
_atom_site_fract_symmform
Mn1 Mn   4 a -0.00254 0.25332 -0.00259 1.00000 Dx,Dy,Dz 
O1  O    4 a 0.15601  0.14374 0.16367  1.00000 Dx,Dy,Dz 
O2  O    4 a 0.54496  0.01721 0.62799  1.00000 Dx,Dy,Dz 
O3  O    4 a 0.04615  0.33140 0.81170  1.00000 Dx,Dy,Dz 
O4  O    4 a 0.43931  0.47190 0.35062  1.00000 Dx,Dy,Dz 
O5  O    4 a -0.05576 0.16606 0.18064  1.00000 Dx,Dy,Dz 
O6  O    4 a 0.33576  0.13754 0.33206  1.00000 Dx,Dy,Dz 
C1  C    4 a 0.69630  0.28038 0.10064  1.00000 Dx,Dy,Dz 
C2  C    4 a 0.24627  0.21194 0.24841  1.00000 Dx,Dy,Dz 
C3  C    4 a 0.03737  0.47394 0.75854  1.00000 Dx,Dy,Dz 
C4  C    4 a -0.02755 0.02952 0.25458  1.00000 Dx,Dy,Dz 
C5  C    4 a 0.80511  0.24085 0.42101  1.00000 Dx,Dy,Dz 
H1  H    4 a 0.68694  0.15186 0.07662  1.00000 Dx,Dy,Dz 
H2  H    4 a 0.69632  0.34231 -0.00790 1.00000 Dx,Dy,Dz 
H3  H    4 a 0.63003  0.32425 0.11640  1.00000 Dx,Dy,Dz 
H4  H    4 a 0.24961  0.34416 0.25188  1.00000 Dx,Dy,Dz 
H5  H    4 a 0.52191  0.06741 0.83210  1.00000 Dx,Dy,Dz 
H6  H    4 a 0.52934  0.45884 0.23159  1.00000 Dx,Dy,Dz 
H7  H    4 a 0.86189  0.26121 0.24573  1.00000 Dx,Dy,Dz 
H8  H    4 a 0.81361  0.43460 0.28360  1.00000 Dx,Dy,Dz 
H9  H    4 a 0.88277  0.27067 0.53564  1.00000 Dx,Dy,Dz 
H10 H    4 a 0.79748  0.11130 0.40601  1.00000 Dx,Dy,Dz 
H11 H    4 a 0.73827  0.28886 0.43299  1.00000 Dx,Dy,Dz 
N1  N    4 a 0.80042  0.31075 0.26329  1.00000 Dx,Dy,Dz 