_cell_length_a                         12.513787
_cell_length_b                         12.513758
_cell_length_c                         8.502227
_cell_angle_alpha                      90.000000
_cell_angle_beta                       90.000061
_cell_angle_gamma                      120.000252
_space_group_IT_number                 1
 loop_
 _space_group_symop_operation_xyz 
 'x, y, z' 
 loop_ 
 _atom_site_label 
 _atom_site_occupancy 
 _atom_site_fract_x 
 _atom_site_fract_y
 _atom_site_fract_z
 _atom_site_adp_type
 _atom_site_U_iso_or_equiv
 _atom_site_type_symbol
 Fe1    1.0    0.161966    0.164684    0.754382 Biso 1.000000  Fe    
 Fe2    1.0    0.834789    0.497379    0.754383 Biso 1.000000  Fe    
 Fe3    1.0    0.494660    0.824555    0.754381 Biso 1.000000  Fe    
 Fe4    1.0    0.498978    0.493060    0.254382 Biso 1.000000  Fe    
 Fe5    1.0    0.826155    0.160365    0.254383 Biso 1.000000  Fe    
 Fe6    1.0    0.166284    0.833192    0.254382 Biso 1.000000  Fe    
 O1     1.0    0.096583    0.254727    0.902832 Biso 1.000000  O     
 O2     1.0    0.990217    0.562762    0.902830 Biso 1.000000  O     
 O3     1.0    0.404616    0.669126    0.902829 Biso 1.000000  O     
 O4     1.0    0.564363    0.403014    0.402834 Biso 1.000000  O     
 O5     1.0    0.670725    0.094981    0.402831 Biso 1.000000  O     
 O6     1.0    0.256328    0.988619    0.402834 Biso 1.000000  O     
 O7     1.0    0.984302    0.254395    0.108630 Biso 1.000000  O     
 O8     1.0    0.102163    0.675040    0.108631 Biso 1.000000  O     
 O9     1.0    0.404948    0.557180    0.108630 Biso 1.000000  O     
 O10    1.0    0.676643    0.403351    0.608634 Biso 1.000000  O     
 O11    1.0    0.558780    0.982701    0.608632 Biso 1.000000  O     
 O12    1.0    0.255993    0.100566    0.608632 Biso 1.000000  O     
 O13    1.0    0.323391    0.230421    0.898424 Biso 1.000000  O     
 O14    1.0    0.739097    0.335952    0.898425 Biso 1.000000  O     
 O15    1.0    0.428925    0.920245    0.898424 Biso 1.000000  O     
 O16    1.0    0.337547    0.427321    0.398427 Biso 1.000000  O     
 O17    1.0    0.921845    0.321793    0.398429 Biso 1.000000  O     
 O18    1.0    0.232019    0.737497    0.398427 Biso 1.000000  O     
 O19    1.0    0.433935    0.328792    0.111756 Biso 1.000000  O     
 O20    1.0    0.726929    0.225405    0.111756 Biso 1.000000  O     
 O21    1.0    0.330549    0.932415    0.111756 Biso 1.000000  O     
 O22    1.0    0.227006    0.328946    0.611759 Biso 1.000000  O     
 O23    1.0    0.934014    0.432339    0.611757 Biso 1.000000  O     
 O24    1.0    0.330397    0.725330    0.611757 Biso 1.000000  O     
 O25    1.0    0.063779    0.997623    0.893817 Biso 1.000000  O     
 O26    1.0    0.765915    0.595564    0.893819 Biso 1.000000  O     
 O27    1.0    0.661723    0.893430    0.893818 Biso 1.000000  O     
 O28    1.0    0.597167    0.660125    0.393818 Biso 1.000000  O     
 O29    1.0    0.895028    0.062176    0.393821 Biso 1.000000  O     
 O30    1.0    0.999220    0.764314    0.393817 Biso 1.000000  O     
 O31    1.0    0.071990    0.898735    0.109058 Biso 1.000000  O     
 O32    1.0    0.658818    0.587355    0.109058 Biso 1.000000  O     
 O33    1.0    0.760609    0.000529    0.109060 Biso 1.000000  O     
 O34    1.0    0.588951    0.759010    0.609058 Biso 1.000000  O     
 O35    1.0    0.002130    0.070391    0.609059 Biso 1.000000  O     
 O36    1.0    0.900335    0.657216    0.609058 Biso 1.000000  O     
 C1     1.0    0.015055    0.199524    0.008962 Biso 1.000000  C     
 C2     1.0    0.016540    0.644288    0.008962 Biso 1.000000  C     
 C3     1.0    0.459818    0.642803    0.008961 Biso 1.000000  C     
 C4     1.0    0.645888    0.458217    0.508965 Biso 1.000000  C     
 C5     1.0    0.644402    0.013456    0.508962 Biso 1.000000  C     
 C6     1.0    0.201125    0.014942    0.508961 Biso 1.000000  C     
 C7     1.0    0.347192    0.300292    0.016272 Biso 1.000000  C     
 C8     1.0    0.785169    0.312148    0.016275 Biso 1.000000  C     
 C9     1.0    0.359050    0.874174    0.016273 Biso 1.000000  C     
 C10    1.0    0.313748    0.357449    0.516275 Biso 1.000000  C     
 C11    1.0    0.875775    0.345597    0.516271 Biso 1.000000  C     
 C12    1.0    0.301893    0.783569    0.516271 Biso 1.000000  C     
 C13    1.0    0.120976    0.969712    0.992100 Biso 1.000000  C     
 C14    1.0    0.680807    0.538368    0.992101 Biso 1.000000  C     
 C15    1.0    0.689632    0.978537    0.992101 Biso 1.000000  C     
 C16    1.0    0.539968    0.688035    0.492101 Biso 1.000000  C     
 C17    1.0    0.980137    0.119376    0.492101 Biso 1.000000  C     
 C18    1.0    0.971310    0.679206    0.492103 Biso 1.000000  C     
 H1     1.0    0.969445    0.098307    0.012658 Biso 1.000000  H     
 H2     1.0    0.960934    0.689897    0.012657 Biso 1.000000  H     
 H3     1.0    0.561036    0.698411    0.012656 Biso 1.000000  H     
 H4     1.0    0.691498    0.559435    0.512658 Biso 1.000000  H     
 H5     1.0    0.700010    0.967847    0.512657 Biso 1.000000  H     
 H6     1.0    0.099906    0.959333    0.512655 Biso 1.000000  H     
 H7     1.0    0.288625    0.338657    0.035034 Biso 1.000000  H     
 H8     1.0    0.882104    0.370718    0.035033 Biso 1.000000  H     
 H9     1.0    0.320686    0.777240    0.035032 Biso 1.000000  H     
 H10    1.0    0.372320    0.319088    0.535033 Biso 1.000000  H     
 H11    1.0    0.778838    0.287025    0.535033 Biso 1.000000  H     
 H12    1.0    0.340256    0.880504    0.535032 Biso 1.000000  H     
 H13    1.0    0.219293    1.008995    0.977575 Biso 1.000000  H     
 H14    1.0    0.621773    0.440050    0.977575 Biso 1.000000  H     
 H15    1.0    0.650347    0.037568    0.977574 Biso 1.000000  H     
 H16    1.0    0.441651    0.648747    0.477571 Biso 1.000000  H     
 H17    1.0    0.039169    0.217693    0.477573 Biso 1.000000  H     
 H18    1.0    0.010597    0.620174    0.477575 Biso 1.000000  H     
 H19    1.0    0.130200    0.400957    0.803687 Biso 1.000000  H     
 H20    1.0    0.141943    0.532275    0.885381 Biso 1.000000  H     
 H21    1.0    0.259396    0.542154    0.769604 Biso 1.000000  H     
 H22    1.0    0.557493    0.249298    0.335426 Biso 1.000000  H     
 H23    1.0    0.545749    0.117980    0.253732 Biso 1.000000  H     
 H24    1.0    0.428296    0.108101    0.369511 Biso 1.000000  H     
 H25    1.0    0.122604    0.507075    0.690695 Biso 1.000000  H     
 H26    1.0    0.455935    0.173744    0.190700 Biso 1.000000  H     
 H27    1.0    0.474984    0.199033    0.882301 Biso 1.000000  H     
 H28    1.0    0.592933    0.209099    0.766131 Biso 1.000000  H     
 H29    1.0    0.463365    0.067343    0.800245 Biso 1.000000  H     
 H30    1.0    0.212537    0.451283    0.250144 Biso 1.000000  H     
 H31    1.0    0.094589    0.441215    0.366318 Biso 1.000000  H     
 H32    1.0    0.224157    0.582972    0.332205 Biso 1.000000  H     
 H33    1.0    0.455906    0.173733    0.687532 Biso 1.000000  H     
 H34    1.0    0.122573    0.507064    0.187528 Biso 1.000000  H     
 H35    1.0    0.888711    0.845424    0.125069 Biso 1.000000  H     
 H36    1.0    0.745494    0.747921    0.205100 Biso 1.000000  H     
 H37    1.0    0.817540    0.904360    0.241677 Biso 1.000000  H     
 H38    1.0    0.745787    0.819716    0.756167 Biso 1.000000  H     
 H39    1.0    0.889003    0.917220    0.676134 Biso 1.000000  H     
 H40    1.0    0.816957    0.760782    0.639553 Biso 1.000000  H     
 H41    1.0    0.871681    0.817344    0.319121 Biso 1.000000  H     
 H42    1.0    0.871682    0.817342    0.819120 Biso 1.000000  H     
 N1     1.0    0.163807    0.495539    0.787981 Biso 1.000000  N     
 N2     1.0    0.497139    0.162205    0.287981 Biso 1.000000  N     
 N3     1.0    0.497141    0.162206    0.784858 Biso 1.000000  N     
 N4     1.0    0.163805    0.495538    0.284858 Biso 1.000000  N     
 N5     1.0    0.830471    0.828874    0.221829 Biso 1.000000  N     
 N6     1.0    0.830469    0.828870    0.721829 Biso 1.000000  N     
