# CIF file created by FINDSYM, version 7.1.3

data_findsym-output
_audit_creation_method FINDSYM

_cell_length_a    8.4180670000
_cell_length_b    11.9141920000
_cell_length_c    9.1218860000
_cell_angle_alpha 90.0000000000
_cell_angle_beta  90.0000000000
_cell_angle_gamma 90.0000000000
_cell_volume      914.8746899064

_symmetry_space_group_name_H-M "P 2/n 21/n 2/a"
_symmetry_Int_Tables_number 52
_space_group.reference_setting '052:-P 2a 2bc'
_space_group.transform_Pp_abc a,b,c;0,0,0

loop_
_space_group_symop_id
_space_group_symop_operation_xyz
1 x,y,z
2 x,-y+1/2,-z+1/2
3 -x+1/2,y+1/2,-z+1/2
4 -x+1/2,-y,z
5 -x,-y,-z
6 -x,y+1/2,z+1/2
7 x+1/2,-y+1/2,z+1/2
8 x+1/2,y,-z

loop_
_atom_site_label
_atom_site_type_symbol
_atom_site_symmetry_multiplicity
_atom_site_Wyckoff_label
_atom_site_fract_x
_atom_site_fract_y
_atom_site_fract_z
_atom_site_occupancy
_atom_site_fract_symmform
Mn1 Mn   4 d 0.23879  0.25000  0.25000  1.00000 Dx,0,0   
O1  O    8 e 0.76666  -0.09376 0.87913  1.00000 Dx,Dy,Dz 
O2  O    8 e -0.08897 0.67378  -0.08557 1.00000 Dx,Dy,Dz 
O3  O    8 e 0.06176  0.69061  0.11559  1.00000 Dx,Dy,Dz 
C1  C    4 c 0.25000  0.00000  0.18533  1.00000 0,0,Dz   
C2  C    8 e 0.02966  0.71361  -0.01691 1.00000 Dx,Dy,Dz 
C3  C    4 c 0.25000  0.00000  0.73615  1.00000 0,0,Dz   
H1  H    4 c 0.25000  0.00000  0.30623  1.00000 0,0,Dz   
H2  H    8 e 0.10920  0.77242  -0.07598 1.00000 Dx,Dy,Dz 
H3  H    8 e 0.82671  -0.08171 0.07909  1.00000 Dx,Dy,Dz 
H4  H    8 e -0.08236 0.87668  0.24793  1.00000 Dx,Dy,Dz 
H5  H    8 e 0.68949  0.06089  0.46708  1.00000 Dx,Dy,Dz 
N1  N    8 e 0.83836  -0.07495 0.19070  1.00000 Dx,Dy,Dz 
N2  N    4 c 0.25000  0.00000  0.58968  1.00000 0,0,Dz   