# CIF file created by FINDSYM, version 7.1.3

data_findsym-output
_audit_creation_method FINDSYM

_cell_length_a    8.1672690000
_cell_length_b    11.6916960000
_cell_length_c    8.3110100000
_cell_angle_alpha 90.0000000000
_cell_angle_beta  90.0000000000
_cell_angle_gamma 90.0000000000
_cell_volume      793.6119146568

_symmetry_space_group_name_H-M "P 21/n 21/m 21/a"
_symmetry_Int_Tables_number 62
_space_group.reference_setting '062:-P 2ac 2n'
_space_group.transform_Pp_abc a,b,c;0,0,0

loop_
_space_group_symop_id
_space_group_symop_operation_xyz
1 x,y,z
2 x+1/2,-y+1/2,-z+1/2
3 -x,y+1/2,-z
4 -x+1/2,-y,z+1/2
5 -x,-y,-z
6 -x+1/2,y+1/2,z+1/2
7 x,-y+1/2,z
8 x+1/2,y,-z+1/2

loop_
_atom_site_label
_atom_site_type_symbol
_atom_site_symmetry_multiplicity
_atom_site_Wyckoff_label
_atom_site_fract_x
_atom_site_fract_y
_atom_site_fract_z
_atom_site_occupancy
_atom_site_fract_symmform
Zn1 Zn   4 a 0.00000  0.00000 0.00000  1.00000 0,0,0    
O1  O    8 d 0.09226  0.57549 0.21183  1.00000 Dx,Dy,Dz 
O2  O    8 d 0.26215  0.55957 0.42220  1.00000 Dx,Dy,Dz 
O3  O    8 d -0.02437 0.34533 0.13099  1.00000 Dx,Dy,Dz 
C1  C    8 d 0.21401  0.53094 0.28148  1.00000 Dx,Dy,Dz 
C2  C    4 c -0.00948 0.25000 0.05913  1.00000 Dx,0,Dz  
C3  C    4 c 0.08839  0.25000 0.52718  1.00000 Dx,0,Dz  
H1  H    8 d 0.28425  0.46362 0.21904  1.00000 Dx,Dy,Dz 
H2  H    4 c 0.01610  0.25000 -0.07140 1.00000 Dx,0,Dz  
H3  H    4 c -0.08445 0.25000 0.34512  1.00000 Dx,0,Dz  
H4  H    8 d 0.14683  0.67707 0.48934  1.00000 Dx,Dy,Dz 
H5  H    4 c 0.08848  0.25000 0.65850  1.00000 Dx,0,Dz  
H6  H    8 d 0.84967  0.67339 0.51743  1.00000 Dx,Dy,Dz 
N1  N    4 c -0.08365 0.25000 0.46962  1.00000 Dx,0,Dz  