# CIF file created by FINDSYM, version 7.1.3

data_findsym-output
_audit_creation_method FINDSYM

_cell_length_a    7.6730600000
_cell_length_b    7.8183400000
_cell_length_c    12.9973600000
_cell_angle_alpha 90.0000000000
_cell_angle_beta  90.0000000000
_cell_angle_gamma 90.0000000000
_cell_volume      779.7193198025

_symmetry_space_group_name_H-M "P 21 21 21"
_symmetry_Int_Tables_number 19
_space_group.reference_setting '019:P 2ac 2ab'
_space_group.transform_Pp_abc a,b,c;0,0,0

loop_
_space_group_symop_id
_space_group_symop_operation_xyz
1 x,y,z
2 x+1/2,-y+1/2,-z
3 -x,y+1/2,-z+1/2
4 -x+1/2,-y,z+1/2

loop_
_atom_site_label
_atom_site_type_symbol
_atom_site_symmetry_multiplicity
_atom_site_Wyckoff_label
_atom_site_fract_x
_atom_site_fract_y
_atom_site_fract_z
_atom_site_occupancy
_atom_site_fract_symmform
Co1 Co   4 a 0.05371  -0.00631 0.58469 1.00000 Dx,Dy,Dz 
C1  C    4 a -0.07370 0.72573  0.73903 1.00000 Dx,Dy,Dz 
C2  C    4 a 0.80757  0.28070  0.52574 1.00000 Dx,Dy,Dz 
C3  C    4 a 0.81110  0.77196  0.46642 1.00000 Dx,Dy,Dz 
H1  H    4 a 0.05602  0.66980  0.72521 1.00000 Dx,Dy,Dz 
H2  H    4 a 0.89036  0.30135  0.45722 1.00000 Dx,Dy,Dz 
H3  H    4 a 0.72687  0.78235  0.53498 1.00000 Dx,Dy,Dz 
H4  H    4 a 0.70566  -0.04353 0.71409 1.00000 Dx,Dy,Dz 
H5  H    4 a 0.57994  0.75280  0.77734 1.00000 Dx,Dy,Dz 
H6  H    4 a 0.39993  0.82500  0.71076 1.00000 Dx,Dy,Dz 
H7  H    4 a 0.43310  0.87934  0.83893 1.00000 Dx,Dy,Dz 
O1  O    4 a 0.89129  0.86602  0.69306 1.00000 Dx,Dy,Dz 
O2  O    4 a 0.82088  0.64959  0.79860 1.00000 Dx,Dy,Dz 
O3  O    4 a 0.84816  0.16533  0.58928 1.00000 Dx,Dy,Dz 
O4  O    4 a 0.67494  0.37755  0.53668 1.00000 Dx,Dy,Dz 
O5  O    4 a -0.04704 0.85307  0.46275 1.00000 Dx,Dy,Dz 
O6  O    4 a 0.75770  0.67563  0.39315 1.00000 Dx,Dy,Dz 
O7  O    4 a 0.58605  0.00143  0.73422 1.00000 Dx,Dy,Dz 
N1  N    4 a 0.49355  0.85439  0.76760 1.00000 Dx,Dy,Dz 
