
#======================================================================
# CRYSTAL DATA
#----------------------------------------------------------------------
data_VESTA_phase_1

_chemical_name_common                  'C4 H9 Cu N3 O6                        '
_cell_length_a                         8.497791
_cell_length_b                         11.266231
_cell_length_c                         9.071661
_cell_angle_alpha                      90.000000
_cell_angle_beta                       90.000000
_cell_angle_gamma                      90.000000
_cell_volume                           868.503371
_space_group_name_H-M_alt              'P 1'
_space_group_IT_number                 1

loop_
_space_group_symop_operation_xyz
   'x, y, z'

loop_
   _atom_site_label
   _atom_site_occupancy
   _atom_site_fract_x
   _atom_site_fract_y
   _atom_site_fract_z
   _atom_site_adp_type
   _atom_site_B_iso_or_equiv
   _atom_site_type_symbol
   Cu1         1.0     0.728929     0.498255     0.251516    Biso  1.000000 Cu
   Cu2         1.0     0.761071     0.998254     0.248484    Biso  1.000000 Cu
   Cu3         1.0     0.228929     0.498255     0.748484    Biso  1.000000 Cu
   Cu4         1.0     0.261071     0.998254     0.751516    Biso  1.000000 Cu
   O1          1.0     0.603203     0.575758     0.096393    Biso  1.000000 O
   O2          1.0     0.886797     0.075758     0.403607    Biso  1.000000 O
   O3          1.0     0.103203     0.575758     0.903607    Biso  1.000000 O
   O4          1.0     0.386797     0.075758     0.596393    Biso  1.000000 O
   O5          1.0     0.449659     0.561305     0.898144    Biso  1.000000 O
   O6          1.0     0.040341     0.061305     0.601856    Biso  1.000000 O
   O7          1.0     0.949659     0.561305     0.101856    Biso  1.000000 O
   O8          1.0     0.540341     0.061305     0.398144    Biso  1.000000 O
   O9          1.0     0.731663     0.649859     0.369566    Biso  1.000000 O
   O10         1.0     0.758337     0.149859     0.130434    Biso  1.000000 O
   O11         1.0     0.231663     0.649859     0.630434    Biso  1.000000 O
   O12         1.0     0.258337     0.149859     0.869566    Biso  1.000000 O
   O13         1.0     0.764242     0.846130     0.368190    Biso  1.000000 O
   O14         1.0     0.725758     0.346130     0.131810    Biso  1.000000 O
   O15         1.0     0.264242     0.846130     0.631810    Biso  1.000000 O
   O16         1.0     0.225758     0.346130     0.868190    Biso  1.000000 O
   O17         1.0     0.902769     0.430246     0.371182    Biso  1.000000 O
   O18         1.0     0.587231     0.930246     0.128818    Biso  1.000000 O
   O19         1.0     0.402769     0.430246     0.628818    Biso  1.000000 O
   O20         1.0     0.087231     0.930246     0.871182    Biso  1.000000 O
   O21         1.0     0.053710     0.414769     0.571616    Biso  1.000000 O
   O22         1.0     0.436290     0.914769     0.928384    Biso  1.000000 O
   O23         1.0     0.553710     0.414769     0.428384    Biso  1.000000 O
   O24         1.0     0.936290     0.914769     0.071616    Biso  1.000000 O
   C1          1.0     0.485349     0.531332     0.026917    Biso  1.000000 C
   C2          1.0     0.004651     0.031332     0.473083    Biso  1.000000 C
   C3          1.0     0.985349     0.531332     0.973083    Biso  1.000000 C
   C4          1.0     0.504651     0.031332     0.526917    Biso  1.000000 C
   C5          1.0     0.759410     0.746658     0.302164    Biso  1.000000 C
   C6          1.0     0.730590     0.246658     0.197836    Biso  1.000000 C
   C7          1.0     0.259410     0.746658     0.697836    Biso  1.000000 C
   C8          1.0     0.230590     0.246658     0.802164    Biso  1.000000 C
   C9          1.0     0.934609     0.454678     0.506367    Biso  1.000000 C
   C10         1.0     0.555391     0.954679     0.993633    Biso  1.000000 C
   C11         1.0     0.434609     0.454678     0.493633    Biso  1.000000 C
   C12         1.0     0.055391     0.954679     0.006367    Biso  1.000000 C
   C13         1.0     0.752434     0.748127     0.755374    Biso  1.000000 C
   C14         1.0     0.737566     0.248127     0.744626    Biso  1.000000 C
   C15         1.0     0.252434     0.748127     0.244626    Biso  1.000000 C
   C16         1.0     0.237566     0.248127     0.255374    Biso  1.000000 C
   H1          1.0     0.413857     0.463560     0.085096    Biso  1.000000 H
   H2          1.0     0.076143     0.963560     0.414904    Biso  1.000000 H
   H3          1.0     0.913857     0.463560     0.914904    Biso  1.000000 H
   H4          1.0     0.576143     0.963560     0.585096    Biso  1.000000 H
   H5          1.0     0.781144     0.744073     0.183061    Biso  1.000000 H
   H6          1.0     0.708856     0.244073     0.316939    Biso  1.000000 H
   H7          1.0     0.281144     0.744073     0.816939    Biso  1.000000 H
   H8          1.0     0.208856     0.244073     0.683061    Biso  1.000000 H
   H9          1.0     0.852564     0.514146     0.565792    Biso  1.000000 H
   H10         1.0     0.637436     0.014146     0.934208    Biso  1.000000 H
   H11         1.0     0.352564     0.514146     0.434208    Biso  1.000000 H
   H12         1.0     0.137436     0.014146     0.065792    Biso  1.000000 H
   H13         1.0     0.833488     0.805035     0.956813    Biso  1.000000 H
   H14         1.0     0.656512     0.305035     0.543187    Biso  1.000000 H
   H15         1.0     0.333488     0.805035     0.043187    Biso  1.000000 H
   H16         1.0     0.156512     0.305035     0.456813    Biso  1.000000 H
   H17         1.0     0.699978     0.684264     0.961728    Biso  1.000000 H
   H18         1.0     0.790022     0.184264     0.538272    Biso  1.000000 H
   H19         1.0     0.199978     0.684264     0.038272    Biso  1.000000 H
   H20         1.0     0.290022     0.184264     0.461728    Biso  1.000000 H
   H21         1.0     0.930961     0.868453     0.731772    Biso  1.000000 H
   H22         1.0     0.559039     0.368453     0.768228    Biso  1.000000 H
   H23         1.0     0.430961     0.868453     0.268228    Biso  1.000000 H
   H24         1.0     0.059039     0.368453     0.231773    Biso  1.000000 H
   H25         1.0     0.825183     0.833479     0.567867    Biso  1.000000 H
   H26         1.0     0.664817     0.333479     0.932133    Biso  1.000000 H
   H27         1.0     0.325183     0.833479     0.432133    Biso  1.000000 H
   H28         1.0     0.164817     0.333479     0.067867    Biso  1.000000 H
   H29         1.0     0.573864     0.627481     0.748696    Biso  1.000000 H
   H30         1.0     0.916136     0.127480     0.751304    Biso  1.000000 H
   H31         1.0     0.073864     0.627481     0.251304    Biso  1.000000 H
   H32         1.0     0.416136     0.127480     0.248696    Biso  1.000000 H
   H33         1.0     0.655409     0.668137     0.573955    Biso  1.000000 H
   H34         1.0     0.834591     0.168137     0.926045    Biso  1.000000 H
   H35         1.0     0.155409     0.668137     0.426045    Biso  1.000000 H
   H36         1.0     0.334591     0.168137     0.073955    Biso  1.000000 H
   N1          1.0     0.763983     0.744493     0.901704    Biso  1.000000 N
   N2          1.0     0.726017     0.244493     0.598296    Biso  1.000000 N
   N3          1.0     0.263983     0.744493     0.098296    Biso  1.000000 N
   N4          1.0     0.226017     0.244493     0.401704    Biso  1.000000 N
   N5          1.0     0.844250     0.822342     0.678369    Biso  1.000000 N
   N6          1.0     0.645750     0.322342     0.821631    Biso  1.000000 N
   N7          1.0     0.344250     0.822342     0.321631    Biso  1.000000 N
   N8          1.0     0.145750     0.322342     0.178369    Biso  1.000000 N
   N9          1.0     0.648544     0.678019     0.685727    Biso  1.000000 N
   N10         1.0     0.841456     0.178019     0.814273    Biso  1.000000 N
   N11         1.0     0.148544     0.678019     0.314273    Biso  1.000000 N
   N12         1.0     0.341456     0.178019     0.185727    Biso  1.000000 N
