
#======================================================================
# CRYSTAL DATA
#----------------------------------------------------------------------
data_VESTA_phase_1

_chemical_name_common                  'generated_by_bilbao_crystallographic_s'
_cell_length_a                         8.497800
_cell_length_b                         11.266200
_cell_length_c                         9.071700
_cell_angle_alpha                      90.000000
_cell_angle_beta                       90.000000
_cell_angle_gamma                      90.000000
_cell_volume                           868.505639
_space_group_name_H-M_alt              'P 1'
_space_group_IT_number                 1

loop_
_space_group_symop_operation_xyz
   'x, y, z'

loop_
   _atom_site_label
   _atom_site_occupancy
   _atom_site_fract_x
   _atom_site_fract_y
   _atom_site_fract_z
   _atom_site_adp_type
   _atom_site_B_iso_or_equiv
   _atom_site_type_symbol
   Cu1         1.0     0.733930     0.490000     0.250000    Biso  1.000000 Cu
   Cu2         1.0     0.766070     0.990000     0.250000    Biso  1.000000 Cu
   Cu3         1.0     0.233930     0.490000     0.750000    Biso  1.000000 Cu
   Cu4         1.0     0.266070     0.990000     0.750000    Biso  1.000000 Cu
   O1          1.0     0.583460     0.570490     0.084000    Biso  1.000000 O
   O2          1.0     0.916540     0.909510     0.084000    Biso  1.000000 O
   O3          1.0     0.916540     0.070490     0.416000    Biso  1.000000 O
   O4          1.0     0.583460     0.409510     0.416000    Biso  1.000000 O
   O5          1.0     0.766290     0.141860     0.131120    Biso  1.000000 O
   O6          1.0     0.733710     0.338140     0.131120    Biso  1.000000 O
   O7          1.0     0.233710     0.641860     0.631120    Biso  1.000000 O
   O8          1.0     0.266290     0.838140     0.631120    Biso  1.000000 O
   O9          1.0     0.266290     0.141860     0.868880    Biso  1.000000 O
   O10         1.0     0.233710     0.338140     0.868880    Biso  1.000000 O
   O11         1.0     0.766290     0.838140     0.368880    Biso  1.000000 O
   O12         1.0     0.733710     0.641860     0.368880    Biso  1.000000 O
   O13         1.0     0.931210     0.424470     0.384660    Biso  1.000000 O
   O14         1.0     0.568790     0.055530     0.384660    Biso  1.000000 O
   O15         1.0     0.568790     0.924470     0.115340    Biso  1.000000 O
   O16         1.0     0.931210     0.555530     0.115340    Biso  1.000000 O
   O17         1.0     0.431210     0.424470     0.615340    Biso  1.000000 O
   O18         1.0     0.068790     0.055530     0.615340    Biso  1.000000 O
   O19         1.0     0.068790     0.924470     0.884660    Biso  1.000000 O
   O20         1.0     0.431210     0.555530     0.884660    Biso  1.000000 O
   O21         1.0     0.083460     0.409510     0.584000    Biso  1.000000 O
   O22         1.0     0.416540     0.070490     0.584000    Biso  1.000000 O
   O23         1.0     0.416540     0.909510     0.916000    Biso  1.000000 O
   O24         1.0     0.083460     0.570490     0.916000    Biso  1.000000 O
   C1          1.0     0.464980     0.528330     0.016640    Biso  1.000000 C
   C2          1.0     0.035020     0.951670     0.016640    Biso  1.000000 C
   C3          1.0     0.535020     0.028330     0.516640    Biso  1.000000 C
   C4          1.0     0.964980     0.451670     0.516640    Biso  1.000000 C
   C5          1.0     0.750000     0.740000     0.302160    Biso  1.000000 C
   C6          1.0     0.750000     0.240000     0.197840    Biso  1.000000 C
   C7          1.0     0.250000     0.740000     0.697840    Biso  1.000000 C
   C8          1.0     0.250000     0.240000     0.802160    Biso  1.000000 C
   C9          1.0     0.535020     0.951670     0.983360    Biso  1.000000 C
   C10         1.0     0.964980     0.528330     0.983360    Biso  1.000000 C
   C11         1.0     0.464980     0.451670     0.483360    Biso  1.000000 C
   C12         1.0     0.035020     0.028330     0.483360    Biso  1.000000 C
   C13         1.0     0.750000     0.740000     0.755370    Biso  1.000000 C
   C14         1.0     0.750000     0.240000     0.744630    Biso  1.000000 C
   C15         1.0     0.250000     0.740000     0.244630    Biso  1.000000 C
   C16         1.0     0.250000     0.240000     0.255370    Biso  1.000000 C
   H1          1.0     0.388210     0.464710     0.075440    Biso  1.000000 H
   H2          1.0     0.111790     0.015290     0.075440    Biso  1.000000 H
   H3          1.0     0.611790     0.964710     0.575440    Biso  1.000000 H
   H4          1.0     0.888210     0.515290     0.575440    Biso  1.000000 H
   H5          1.0     0.750000     0.740000     0.183060    Biso  1.000000 H
   H6          1.0     0.750000     0.240000     0.316940    Biso  1.000000 H
   H7          1.0     0.250000     0.740000     0.816940    Biso  1.000000 H
   H8          1.0     0.250000     0.240000     0.683060    Biso  1.000000 H
   H9          1.0     0.611790     0.015290     0.924560    Biso  1.000000 H
   H10         1.0     0.888210     0.464710     0.924560    Biso  1.000000 H
   H11         1.0     0.388210     0.515290     0.424560    Biso  1.000000 H
   H12         1.0     0.111790     0.964710     0.424560    Biso  1.000000 H
   H13         1.0     0.816750     0.800390     0.959270    Biso  1.000000 H
   H14         1.0     0.683250     0.679610     0.959270    Biso  1.000000 H
   H15         1.0     0.683240     0.300390     0.540730    Biso  1.000000 H
   H16         1.0     0.816760     0.179610     0.540730    Biso  1.000000 H
   H17         1.0     0.316760     0.800390     0.040730    Biso  1.000000 H
   H18         1.0     0.183240     0.679610     0.040730    Biso  1.000000 H
   H19         1.0     0.183240     0.300390     0.459270    Biso  1.000000 H
   H20         1.0     0.316760     0.179610     0.459270    Biso  1.000000 H
   H21         1.0     0.928550     0.860490     0.740230    Biso  1.000000 H
   H22         1.0     0.571450     0.619510     0.740230    Biso  1.000000 H
   H23         1.0     0.571450     0.360490     0.759770    Biso  1.000000 H
   H24         1.0     0.928550     0.119510     0.759770    Biso  1.000000 H
   H25         1.0     0.428550     0.860490     0.259770    Biso  1.000000 H
   H26         1.0     0.071450     0.619510     0.259770    Biso  1.000000 H
   H27         1.0     0.071450     0.360490     0.240230    Biso  1.000000 H
   H28         1.0     0.428550     0.119510     0.240230    Biso  1.000000 H
   H29         1.0     0.834890     0.822670     0.570910    Biso  1.000000 H
   H30         1.0     0.665110     0.657330     0.570910    Biso  1.000000 H
   H31         1.0     0.665110     0.322670     0.929090    Biso  1.000000 H
   H32         1.0     0.834890     0.157330     0.929090    Biso  1.000000 H
   H33         1.0     0.334890     0.822670     0.429090    Biso  1.000000 H
   H34         1.0     0.165110     0.657330     0.429090    Biso  1.000000 H
   H35         1.0     0.165110     0.322670     0.070910    Biso  1.000000 H
   H36         1.0     0.334890     0.157330     0.070910    Biso  1.000000 H
   N1          1.0     0.750000     0.740000     0.901700    Biso  1.000000 N
   N2          1.0     0.750000     0.240000     0.598300    Biso  1.000000 N
   N3          1.0     0.250000     0.740000     0.098300    Biso  1.000000 N
   N4          1.0     0.250000     0.240000     0.401700    Biso  1.000000 N
   N5          1.0     0.847850     0.812160     0.682050    Biso  1.000000 N
   N6          1.0     0.652150     0.667840     0.682050    Biso  1.000000 N
   N7          1.0     0.847850     0.167840     0.817950    Biso  1.000000 N
   N8          1.0     0.652150     0.312160     0.817950    Biso  1.000000 N
   N9          1.0     0.152150     0.667840     0.317950    Biso  1.000000 N
   N10         1.0     0.347850     0.812160     0.317950    Biso  1.000000 N
   N11         1.0     0.347850     0.167840     0.182050    Biso  1.000000 N
   N12         1.0     0.152150     0.312160     0.182050    Biso  1.000000 N
