# CIF file created by FINDSYM, version 7.1.3

data_findsym-output
_audit_creation_method FINDSYM

_cell_length_a    8.2747180000
_cell_length_b    11.6631680000
_cell_length_c    8.9911380000
_cell_angle_alpha 90.0000000000
_cell_angle_beta  90.0000000000
_cell_angle_gamma 90.0000000000
_cell_volume      867.7295691448

_symmetry_space_group_name_H-M "P 2/n 21/n 2/a"
_symmetry_Int_Tables_number 52
_space_group.reference_setting '052:-P 2a 2bc'
_space_group.transform_Pp_abc a,b,c;0,0,0

loop_
_space_group_symop_id
_space_group_symop_operation_xyz
1 x,y,z
2 x,-y+1/2,-z+1/2
3 -x+1/2,y+1/2,-z+1/2
4 -x+1/2,-y,z
5 -x,-y,-z
6 -x,y+1/2,z+1/2
7 x+1/2,-y+1/2,z+1/2
8 x+1/2,y,-z

loop_
_atom_site_label
_atom_site_type_symbol
_atom_site_symmetry_multiplicity
_atom_site_Wyckoff_label
_atom_site_fract_x
_atom_site_fract_y
_atom_site_fract_z
_atom_site_occupancy
_atom_site_fract_symmform
Zn1 Zn   4 d 0.26834 0.25000 0.25000  1.00000 Dx,0,0   
O1  O    8 e 0.26927 0.40480 0.37397  1.00000 Dx,Dy,Dz 
O2  O    8 e 0.41547 0.17500 0.41416  1.00000 Dx,Dy,Dz 
O3  O    8 e 0.57056 0.18938 0.61647  1.00000 Dx,Dy,Dz 
C1  C    4 c 0.25000 0.00000 0.19232  1.00000 0,0,Dz   
C2  C    8 e 0.53461 0.21748 0.48432  1.00000 Dx,Dy,Dz 
C3  C    4 c 0.25000 0.00000 0.73898  1.00000 0,0,Dz   
H1  H    4 c 0.25000 0.00000 0.31449  1.00000 0,0,Dz   
H2  H    8 e 0.61024 0.28240 0.42750  1.00000 Dx,Dy,Dz 
H3  H    8 e 0.33233 0.41853 0.57377  1.00000 Dx,Dy,Dz 
H4  H    8 e 0.42602 0.37792 0.74534  1.00000 Dx,Dy,Dz 
H5  H    8 e 0.31442 0.43920 -0.03310 1.00000 Dx,Dy,Dz 
N1  N    8 e 0.34419 0.42606 0.68687  1.00000 Dx,Dy,Dz 
N2  N    4 c 0.25000 0.00000 0.59062  1.00000 0,0,Dz   

# end of cif
