# CIF file created by FINDSYM, version 7.1.3

data_findsym-output
_audit_creation_method FINDSYM

_cell_length_a    8.4977910000
_cell_length_b    9.0716610000
_cell_length_c    11.2662310000
_cell_angle_alpha 90.0000000000
_cell_angle_beta  90.0000000000
_cell_angle_gamma 90.0000000000
_cell_volume      868.5033738541

_symmetry_space_group_name_H-M "P n a 21"
_symmetry_Int_Tables_number 33
_space_group.reference_setting '033:P 2c -2n'
_space_group.transform_Pp_abc a,b,c;0,0,0

loop_
_space_group_symop_id
_space_group_symop_operation_xyz
1 x,y,z
2 -x,-y,z+1/2
3 -x+1/2,y+1/2,z+1/2
4 x+1/2,-y+1/2,z

loop_
_atom_site_label
_atom_site_type_symbol
_atom_site_symmetry_multiplicity
_atom_site_Wyckoff_label
_atom_site_fract_x
_atom_site_fract_y
_atom_site_fract_z
_atom_site_occupancy
_atom_site_fract_symmform
Cu1 Cu   4 a 0.48393 0.50152  0.49825 1.00000 Dx,Dy,Dz 
O1  O    4 a 0.35820 0.34639  0.57576 1.00000 Dx,Dy,Dz 
O2  O    4 a 0.20466 0.14814  0.56130 1.00000 Dx,Dy,Dz 
O3  O    4 a 0.48666 0.61957  0.64986 1.00000 Dx,Dy,Dz 
O4  O    4 a 0.51924 0.61819  0.84613 1.00000 Dx,Dy,Dz 
O5  O    4 a 0.65777 0.62118  0.43025 1.00000 Dx,Dy,Dz 
O6  O    4 a 0.80871 0.82162  0.41477 1.00000 Dx,Dy,Dz 
C1  C    4 a 0.24035 0.27692  0.53133 1.00000 Dx,Dy,Dz 
C2  C    4 a 0.51441 0.55216  0.74666 1.00000 Dx,Dy,Dz 
C3  C    4 a 0.68961 0.75637  0.45468 1.00000 Dx,Dy,Dz 
C4  C    4 a 0.50743 0.00537  0.74813 1.00000 Dx,Dy,Dz 
H1  H    4 a 0.16886 0.33510  0.46356 1.00000 Dx,Dy,Dz 
H2  H    4 a 0.53614 0.43306  0.74407 1.00000 Dx,Dy,Dz 
H3  H    4 a 0.60756 0.81579  0.51415 1.00000 Dx,Dy,Dz 
H4  H    4 a 0.58849 0.20681  0.80503 1.00000 Dx,Dy,Dz 
H5  H    4 a 0.45498 0.21173  0.68426 1.00000 Dx,Dy,Dz 
H6  H    4 a 0.68596 -0.01823 0.86845 1.00000 Dx,Dy,Dz 
H7  H    4 a 0.58018 0.81787  0.83348 1.00000 Dx,Dy,Dz 
H8  H    4 a 0.32886 -0.00130 0.62748 1.00000 Dx,Dy,Dz 
H9  H    4 a 0.41041 0.82395  0.66814 1.00000 Dx,Dy,Dz 
N1  N    4 a 0.51898 0.15170  0.74449 1.00000 Dx,Dy,Dz 
N2  N    4 a 0.59925 -0.07163 0.82234 1.00000 Dx,Dy,Dz 
N3  N    4 a 0.40354 -0.06427 0.67802 1.00000 Dx,Dy,Dz 

# end of cif
