_cell_length_a     8.1181
_cell_length_b    11.7335
_cell_length_c     8.8220
_cell_angle_alpha 90.0
_cell_angle_beta 90.0
_cell_angle_gamma 90.0
_space_group_IT_number                 1
 loop_
 _space_group_symop_operation_xyz 
 'x, y, z' 
 loop_ 
 _atom_site_label 
 _atom_site_occupancy 
 _atom_site_fract_x 
 _atom_site_fract_y
 _atom_site_fract_z
 _atom_site_adp_type
 _atom_site_U_iso_or_equiv
 _atom_site_type_symbol
 Mg1    1.0    0.737686    0.502502    0.247558 Biso 1.000000  Mg    
 Mg2    1.0    0.795314    0.002502    0.252442 Biso 1.000000  Mg    
 Mg3    1.0    0.295314    0.002502    0.747558 Biso 1.000000  Mg    
 Mg4    1.0    0.237686    0.502502    0.752442 Biso 1.000000  Mg    
 O1     1.0    0.946648    0.441796    0.346541 Biso 1.000000  O     
 O2     1.0    0.586352    0.941796    0.153459 Biso 1.000000  O     
 O3     1.0    0.086352    0.941796    0.846541 Biso 1.000000  O     
 O4     1.0    0.446648    0.441796    0.653459 Biso 1.000000  O     
 O5     1.0    0.123069    0.440759    0.546426 Biso 1.000000  O     
 O6     1.0    0.409931    0.940759    0.953574 Biso 1.000000  O     
 O7     1.0    0.909931    0.940759    0.046426 Biso 1.000000  O     
 O8     1.0    0.623069    0.440759    0.453574 Biso 1.000000  O     
 O9     1.0    0.848038    0.565981    0.039272 Biso 1.000000  O     
 O10    1.0    0.684962    0.065981    0.460728 Biso 1.000000  O     
 O11    1.0    0.184962    0.065981    0.539272 Biso 1.000000  O     
 O12    1.0    0.348038    0.565981    0.960728 Biso 1.000000  O     
 O13    1.0    0.031532    0.566760    0.846570 Biso 1.000000  O     
 O14    1.0    0.501468    0.066760    0.653430 Biso 1.000000  O     
 O15    1.0    0.001468    0.066760    0.346570 Biso 1.000000  O     
 O16    1.0    0.531532    0.566760    0.153430 Biso 1.000000  O     
 O17    1.0    0.718885    0.343987    0.125009 Biso 1.000000  O     
 O18    1.0    0.814115    0.843987    0.374991 Biso 1.000000  O     
 O19    1.0    0.314115    0.843987    0.625009 Biso 1.000000  O     
 O20    1.0    0.218885    0.343987    0.874991 Biso 1.000000  O     
 O21    1.0    0.761386    0.156795    0.130527 Biso 1.000000  O     
 O22    1.0    0.771614    0.656795    0.369473 Biso 1.000000  O     
 O23    1.0    0.271614    0.656795    0.630527 Biso 1.000000  O     
 O24    1.0    0.261386    0.156795    0.869473 Biso 1.000000  O     
 C1     1.0    1.001728    0.476507    0.483038 Biso 1.000000  C     
 C2     1.0    0.531272    0.976507    0.016962 Biso 1.000000  C     
 C3     1.0    0.031272    0.976507    0.983038 Biso 1.000000  C     
 C4     1.0    0.501728    0.476507    0.516962 Biso 1.000000  C     
 C5     1.0    0.963064    0.524129    0.970442 Biso 1.000000  C     
 C6     1.0    0.569936    0.024129    0.529558 Biso 1.000000  C     
 C7     1.0    0.069936    0.024129    0.470442 Biso 1.000000  C     
 C8     1.0    0.463064    0.524129    0.029558 Biso 1.000000  C     
 C9     1.0    0.754812    0.252766    0.198512 Biso 1.000000  C     
 C10    1.0    0.778188    0.752766    0.301488 Biso 1.000000  C     
 C11    1.0    0.278188    0.752766    0.698512 Biso 1.000000  C     
 C12    1.0    0.254812    0.252766    0.801488 Biso 1.000000  C     
 C13    1.0    0.285766    0.277090    0.303904 Biso 1.000000  C     
 C14    1.0    0.247304    0.777090    0.196096 Biso 1.000000  C     
 C15    1.0    0.747234    0.777090    0.803904 Biso 1.000000  C     
 C16    1.0    0.785834    0.277107    0.696065 Biso 1.000000  C     
 C17    1.0    0.398945    0.190924    0.241036 Biso 1.000000  C     
 C18    1.0    0.134125    0.690924    0.258964 Biso 1.000000  C     
 C19    1.0    0.634055    0.690924    0.741036 Biso 1.000000  C     
 C20    1.0    0.899013    0.190942    0.758933 Biso 1.000000  C     
 H1     1.0    0.936137    0.542431    0.548267 Biso 1.000000  H     
 H2     1.0    0.596863    0.042431    0.951733 Biso 1.000000  H     
 H3     1.0    0.096863    0.042431    0.048267 Biso 1.000000  H     
 H4     1.0    0.436137    0.542431    0.451733 Biso 1.000000  H     
 H5     1.0    0.009868    0.443709    0.018917 Biso 1.000000  H     
 H6     1.0    0.523132    0.943709    0.481083 Biso 1.000000  H     
 H7     1.0    0.023132    0.943709    0.518917 Biso 1.000000  H     
 H8     1.0    0.509868    0.443709    0.981083 Biso 1.000000  H     
 H9     1.0    0.782264    0.258301    0.331218 Biso 1.000000  H     
 H10    1.0    0.750736    0.758301    0.168782 Biso 1.000000  H     
 H11    1.0    0.250736    0.758301    0.831218 Biso 1.000000  H     
 H12    1.0    0.282264    0.258301    0.668782 Biso 1.000000  H     
 H13    1.0    0.326271    0.364996    0.285325 Biso 1.000000  H     
 H14    1.0    0.206799    0.864996    0.214675 Biso 1.000000  H     
 H15    1.0    0.706729    0.864996    0.785325 Biso 1.000000  H     
 H16    1.0    0.826339    0.365013    0.714643 Biso 1.000000  H     
 H17    1.0    0.261343    0.263701    0.434916 Biso 1.000000  H     
 H18    1.0    0.271727    0.763701    0.065084 Biso 1.000000  H     
 H19    1.0    0.771657    0.763701    0.934916 Biso 1.000000  H     
 H20    1.0    0.761411    0.263719    0.565052 Biso 1.000000  H     
 H21    1.0    0.353259    0.104064    0.252650 Biso 1.000000  H     
 H22    1.0    0.179811    0.604064    0.247350 Biso 1.000000  H     
 H23    1.0    0.679741    0.604064    0.752650 Biso 1.000000  H     
 H24    1.0    0.853327    0.104082    0.747318 Biso 1.000000  H     
 H25    1.0    0.500689    0.193157    0.315944 Biso 1.000000  H     
 H26    1.0    0.032381    0.693157    0.184056 Biso 1.000000  H     
 H27    1.0    0.532311    0.693157    0.815944 Biso 1.000000  H     
 H28    1.0    1.000757    0.193175    0.684024 Biso 1.000000  H     
 H29    1.0    0.430648    0.208467    0.112321 Biso 1.000000  H     
 H30    1.0    0.102422    0.708467    0.387679 Biso 1.000000  H     
 H31    1.0    0.602352    0.708467    0.612321 Biso 1.000000  H     
 H32    1.0    0.930717    0.208484    0.887648 Biso 1.000000  H     
 H33    1.0    0.152442    0.292748    0.095869 Biso 1.000000  H     
 H34    1.0    0.380628    0.792748    0.404131 Biso 1.000000  H     
 H35    1.0    0.880558    0.792748    0.595869 Biso 1.000000  H     
 H36    1.0    0.652510    0.292766    0.904100 Biso 1.000000  H     
 H37    1.0    0.057895    0.325867    0.273267 Biso 1.000000  H     
 H38    1.0    0.475175    0.825867    0.226733 Biso 1.000000  H     
 H39    1.0    0.975105    0.825867    0.773267 Biso 1.000000  H     
 H40    1.0    0.557963    0.325885    0.726701 Biso 1.000000  H     
 H41    1.0    0.093685    0.186722    0.234071 Biso 1.000000  H     
 H42    1.0    0.439385    0.686722    0.265929 Biso 1.000000  H     
 H43    1.0    0.939315    0.686722    0.734071 Biso 1.000000  H     
 H44    1.0    0.593754    0.186740    0.765897 Biso 1.000000  H     
 N1     1.0    0.137015    0.269832    0.219282 Biso 1.000000  N     
 N2     1.0    0.396054    0.769832    0.280718 Biso 1.000000  N     
 N3     1.0    0.895985    0.769832    0.719282 Biso 1.000000  N     
 N4     1.0    0.637084    0.269849    0.780686 Biso 1.000000  N     
