_cell_length_a                         12.587100
_cell_length_b                         12.587100
_cell_length_c                         8.223700
_cell_angle_alpha                      90.000000
_cell_angle_beta                       90.000000
_cell_angle_gamma                      120.000008
_space_group_IT_number                 1
 loop_
 _space_group_symop_operation_xyz 
 'x, y, z' 
 loop_ 
 _atom_site_label 
 _atom_site_occupancy 
 _atom_site_fract_x 
 _atom_site_fract_y
 _atom_site_fract_z
 _atom_site_adp_type
 _atom_site_U_iso_or_equiv
 _atom_site_type_symbol
 Co1    1.0    0.163325    0.163325    0.755000 Biso 1.000000  Co    
 Co2    1.0    0.830000    0.496675    0.755000 Biso 1.000000  Co    
 Co3    1.0    0.496675    0.830000    0.755000 Biso 1.000000  Co    
 Co4    1.0    0.496675    0.496675    0.255000 Biso 1.000000  Co    
 Co5    1.0    0.830000    0.163325    0.255000 Biso 1.000000  Co    
 Co6    1.0    0.163325    0.830000    0.255000 Biso 1.000000  Co    
 O1     1.0    0.097615    0.255725    0.898850 Biso 1.000000  O     
 O2     1.0    0.988110    0.562385    0.898850 Biso 1.000000  O     
 O3     1.0    0.404275    0.671890    0.898850 Biso 1.000000  O     
 O4     1.0    0.562385    0.404275    0.398850 Biso 1.000000  O     
 O5     1.0    0.671890    0.097615    0.398850 Biso 1.000000  O     
 O6     1.0    0.255725    0.988110    0.398850 Biso 1.000000  O     
 O7     1.0    0.988110    0.255725    0.111150 Biso 1.000000  O     
 O8     1.0    0.097615    0.671890    0.111150 Biso 1.000000  O     
 O9     1.0    0.404275    0.562385    0.111150 Biso 1.000000  O     
 O10    1.0    0.671890    0.404275    0.611150 Biso 1.000000  O     
 O11    1.0    0.562385    0.988110    0.611150 Biso 1.000000  O     
 O12    1.0    0.255725    0.097615    0.611150 Biso 1.000000  O     
 O13    1.0    0.321470    0.229035    0.898660 Biso 1.000000  O     
 O14    1.0    0.737565    0.338530    0.898660 Biso 1.000000  O     
 O15    1.0    0.430965    0.922435    0.898660 Biso 1.000000  O     
 O16    1.0    0.338530    0.430965    0.398660 Biso 1.000000  O     
 O17    1.0    0.922435    0.321470    0.398660 Biso 1.000000  O     
 O18    1.0    0.229035    0.737565    0.398660 Biso 1.000000  O     
 O19    1.0    0.430965    0.338530    0.111340 Biso 1.000000  O     
 O20    1.0    0.737565    0.229035    0.111340 Biso 1.000000  O     
 O21    1.0    0.321470    0.922435    0.111340 Biso 1.000000  O     
 O22    1.0    0.229035    0.321470    0.611340 Biso 1.000000  O     
 O23    1.0    0.922435    0.430965    0.611340 Biso 1.000000  O     
 O24    1.0    0.338530    0.737565    0.611340 Biso 1.000000  O     
 O25    1.0    0.070910    0.005215    0.898920 Biso 1.000000  O     
 O26    1.0    0.764305    0.589090    0.898920 Biso 1.000000  O     
 O27    1.0    0.654785    0.895695    0.898920 Biso 1.000000  O     
 O28    1.0    0.589090    0.654785    0.398920 Biso 1.000000  O     
 O29    1.0    0.895695    0.070910    0.398920 Biso 1.000000  O     
 O30    1.0    0.005215    0.764305    0.398920 Biso 1.000000  O     
 O31    1.0    0.070910    0.895695    0.111080 Biso 1.000000  O     
 O32    1.0    0.654785    0.589090    0.111080 Biso 1.000000  O     
 O33    1.0    0.764305    0.005215    0.111080 Biso 1.000000  O     
 O34    1.0    0.589090    0.764305    0.611080 Biso 1.000000  O     
 O35    1.0    0.005215    0.070910    0.611080 Biso 1.000000  O     
 O36    1.0    0.895695    0.654785    0.611080 Biso 1.000000  O     
 C1     1.0    0.016650    0.203300    0.005000 Biso 1.000000  C     
 C2     1.0    0.016650    0.643350    0.005000 Biso 1.000000  C     
 C3     1.0    0.456700    0.643350    0.005000 Biso 1.000000  C     
 C4     1.0    0.643350    0.456700    0.505000 Biso 1.000000  C     
 C5     1.0    0.643350    0.016650    0.505000 Biso 1.000000  C     
 C6     1.0    0.203300    0.016650    0.505000 Biso 1.000000  C     
 C7     1.0    0.350150    0.309850    0.005000 Biso 1.000000  C     
 C8     1.0    0.789700    0.309850    0.005000 Biso 1.000000  C     
 C9     1.0    0.350150    0.870300    0.005000 Biso 1.000000  C     
 C10    1.0    0.309850    0.350150    0.505000 Biso 1.000000  C     
 C11    1.0    0.870300    0.350150    0.505000 Biso 1.000000  C     
 C12    1.0    0.309850    0.789700    0.505000 Biso 1.000000  C     
 C13    1.0    0.123100    0.976550    1.005000 Biso 1.000000  C     
 C14    1.0    0.683450    0.536900    1.005000 Biso 1.000000  C     
 C15    1.0    0.683450    0.976550    1.005000 Biso 1.000000  C     
 C16    1.0    0.536900    0.683450    0.505000 Biso 1.000000  C     
 C17    1.0    0.976550    0.123100    0.505000 Biso 1.000000  C     
 C18    1.0    0.976550    0.683450    0.505000 Biso 1.000000  C     
 H1     1.0    0.973250    0.116500    0.005000 Biso 1.000000  H     
 H2     1.0    0.973250    0.686750    0.005000 Biso 1.000000  H     
 H3     1.0    0.543500    0.686750    0.005000 Biso 1.000000  H     
 H4     1.0    0.686750    0.543500    0.505000 Biso 1.000000  H     
 H5     1.0    0.686750    0.973250    0.505000 Biso 1.000000  H     
 H6     1.0    0.116500    0.973250    0.505000 Biso 1.000000  H     
 H7     1.0    0.307300    0.352700    0.005000 Biso 1.000000  H     
 H8     1.0    0.875400    0.352700    0.005000 Biso 1.000000  H     
 H9     1.0    0.307300    0.784600    0.005000 Biso 1.000000  H     
 H10    1.0    0.352700    0.307300    0.505000 Biso 1.000000  H     
 H11    1.0    0.784600    0.307300    0.505000 Biso 1.000000  H     
 H12    1.0    0.352700    0.875400    0.505000 Biso 1.000000  H     
 H13    1.0    0.207900    0.018950    1.005000 Biso 1.000000  H     
 H14    1.0    0.641050    0.452100    1.005000 Biso 1.000000  H     
 H15    1.0    0.641050    0.018950    1.005000 Biso 1.000000  H     
 H16    1.0    0.452100    0.641050    0.505000 Biso 1.000000  H     
 H17    1.0    0.018950    0.207900    0.505000 Biso 1.000000  H     
 H18    1.0    0.018950    0.641050    0.505000 Biso 1.000000  H     
 H19    1.0    0.121254    0.420485    0.734180 Biso 1.000000  H     
 H20    1.0    0.198619    0.499162    0.843081 Biso 1.000000  H     
 H21    1.0    0.221030    0.521953    0.685201 Biso 1.000000  H     
 H22    1.0    0.572682    0.207248    0.274130 Biso 1.000000  H     
 H23    1.0    0.495317    0.128571    0.165228 Biso 1.000000  H     
 H24    1.0    0.472907    0.105780    0.323109 Biso 1.000000  H     
 H25    1.0    0.122299    0.535682    0.754155 Biso 1.000000  H     
 H26    1.0    0.455633    0.202348    0.254155 Biso 1.000000  H     
 H27    1.0    0.532110    0.168114    0.845385 Biso 1.000000  H     
 H28    1.0    0.552194    0.187863    0.683908 Biso 1.000000  H     
 H29    1.0    0.450028    0.087400    0.738244 Biso 1.000000  H     
 H30    1.0    0.157443    0.460804    0.166305 Biso 1.000000  H     
 H31    1.0    0.137360    0.441055    0.327782 Biso 1.000000  H     
 H32    1.0    0.239525    0.541518    0.273446 Biso 1.000000  H     
 H33    1.0    0.456663    0.205407    0.755845 Biso 1.000000  H     
 H34    1.0    0.123329    0.538741    0.255845 Biso 1.000000  H     
 H35    1.0    0.840140    0.861429    0.159032 Biso 1.000000  H     
 H36    1.0    0.754663    0.775953    0.275433 Biso 1.000000  H     
 H37    1.0    0.863263    0.884552    0.330535 Biso 1.000000  H     
 H38    1.0    0.798571    0.819860    0.850968 Biso 1.000000  H     
 H39    1.0    0.884047    0.905337    0.734567 Biso 1.000000  H     
 H40    1.0    0.775448    0.796737    0.679465 Biso 1.000000  H     
 H41    1.0    0.872541    0.787459    0.255000 Biso 1.000000  H     
 H42    1.0    0.872541    0.787459    0.755000 Biso 1.000000  H     
 N1     1.0    0.163326    0.496674    0.754155 Biso 1.000000  N     
 N2     1.0    0.496660    0.163340    0.254155 Biso 1.000000  N     
 N3     1.0    0.496664    0.163336    0.755845 Biso 1.000000  N     
 N4     1.0    0.163330    0.496670    0.255845 Biso 1.000000  N     
 N5     1.0    0.829992    0.830008    0.255000 Biso 1.000000  N     
 N6     1.0    0.829992    0.830008    0.755000 Biso 1.000000  N     
