_cell_length_a     8.9908
_cell_length_b    11.6594
_cell_length_c     7.8253
_cell_angle_alpha 90.0
_cell_angle_beta 90.0
_cell_angle_gamma 90.0
_space_group_IT_number                 1
 loop_
 _space_group_symop_operation_xyz 
 'x, y, z' 
 loop_ 
 _atom_site_label 
 _atom_site_occupancy 
 _atom_site_fract_x 
 _atom_site_fract_y
 _atom_site_fract_z
 _atom_site_adp_type
 _atom_site_U_iso_or_equiv
 _atom_site_type_symbol
 Mn1    1.0    0.264235    0.500596    0.328949 Biso 1.000000  Mn    
 Mn2    1.0    0.322965    0.000596    0.327051 Biso 1.000000  Mn    
 Mn3    1.0    0.764235    0.500596    0.827051 Biso 1.000000  Mn    
 Mn4    1.0    0.822965    0.000596    0.828949 Biso 1.000000  Mn    
 O1     1.0    0.480902    0.426436    0.403089 Biso 1.000000  O     
 O2     1.0    0.106298    0.926436    0.252911 Biso 1.000000  O     
 O3     1.0    0.980902    0.426436    0.752911 Biso 1.000000  O     
 O4     1.0    0.606298    0.926436    0.903089 Biso 1.000000  O     
 O5     1.0    0.670262    0.429226    0.589569 Biso 1.000000  O     
 O6     1.0    0.916938    0.929226    0.066431 Biso 1.000000  O     
 O7     1.0    0.170262    0.429226    0.566431 Biso 1.000000  O     
 O8     1.0    0.416938    0.929226    0.089569 Biso 1.000000  O     
 O9     1.0    0.360669    0.573057    0.093401 Biso 1.000000  O     
 O10    1.0    0.226531    0.073057    0.562599 Biso 1.000000  O     
 O11    1.0    0.860669    0.573057    0.062599 Biso 1.000000  O     
 O12    1.0    0.726531    0.073057    0.593401 Biso 1.000000  O     
 O13    1.0    0.549005    0.575464    0.905325 Biso 1.000000  O     
 O14    1.0    0.038195    0.075464    0.750675 Biso 1.000000  O     
 O15    1.0    0.049005    0.575464    0.250675 Biso 1.000000  O     
 O16    1.0    0.538195    0.075464    0.405325 Biso 1.000000  O     
 O17    1.0    0.232856    0.342125    0.176211 Biso 1.000000  O     
 O18    1.0    0.354344    0.842125    0.479789 Biso 1.000000  O     
 O19    1.0    0.732856    0.342125    0.979788 Biso 1.000000  O     
 O20    1.0    0.854344    0.842125    0.676211 Biso 1.000000  O     
 O21    1.0    0.275716    0.157741    0.181037 Biso 1.000000  O     
 O22    1.0    0.311484    0.657741    0.474963 Biso 1.000000  O     
 O23    1.0    0.775716    0.157741    0.974963 Biso 1.000000  O     
 O24    1.0    0.811484    0.657741    0.681037 Biso 1.000000  O     
 C1     1.0    0.539272    0.455379    0.543081 Biso 1.000000  C     
 C2     1.0    0.047928    0.955379    0.112919 Biso 1.000000  C     
 C3     1.0    0.039272    0.455379    0.612919 Biso 1.000000  C     
 C4     1.0    0.547928    0.955379    0.043081 Biso 1.000000  C     
 C5     1.0    0.482088    0.535353    0.034839 Biso 1.000000  C     
 C6     1.0    0.105112    0.035353    0.621161 Biso 1.000000  C     
 C7     1.0    0.982088    0.535353    0.121161 Biso 1.000000  C     
 C8     1.0    0.605112    0.035353    0.534839 Biso 1.000000  C     
 C9     1.0    0.247703    0.249657    0.254554 Biso 1.000000  C     
 C10    1.0    0.339497    0.749657    0.401446 Biso 1.000000  C     
 C11    1.0    0.747703    0.249657    0.901446 Biso 1.000000  C     
 C12    1.0    0.839497    0.749657    0.754554 Biso 1.000000  C     
 H1     1.0    0.473917    0.507030    0.630671 Biso 1.000000  H     
 H2     1.0    0.113283    1.007030    0.025329 Biso 1.000000  H     
 H3     1.0    0.973917    0.507030    0.525329 Biso 1.000000  H     
 H4     1.0    0.613283    1.007030    0.130671 Biso 1.000000  H     
 H5     1.0    0.532996    0.463214    0.099991 Biso 1.000000  H     
 H6     1.0    0.054204    0.963214    0.556009 Biso 1.000000  H     
 H7     1.0    0.032996    0.463214    0.056009 Biso 1.000000  H     
 H8     1.0    0.554204    0.963214    0.599991 Biso 1.000000  H     
 H9     1.0    0.234853    0.249876    0.395093 Biso 1.000000  H     
 H10    1.0    0.352346    0.749876    0.260907 Biso 1.000000  H     
 H11    1.0    0.734853    0.249876    0.760907 Biso 1.000000  H     
 H12    1.0    0.852347    0.749876    0.895093 Biso 1.000000  H     
 H13    1.0    0.714953    0.255464    0.175051 Biso 1.000000  H     
 H14    1.0    0.872247    0.755464    0.480949 Biso 1.000000  H     
 H15    1.0    0.214960    0.255604    0.980945 Biso 1.000000  H     
 H16    1.0    0.372240    0.755604    0.675055 Biso 1.000000  H     
 H17    1.0    0.711540    0.355199    0.337121 Biso 1.000000  H     
 H18    1.0    0.875660    0.855199    0.318879 Biso 1.000000  H     
 H19    1.0    0.211541    0.355193    0.818677 Biso 1.000000  H     
 H20    1.0    0.375659    0.855193    0.837323 Biso 1.000000  H     
 H21    1.0    0.647970    0.220186    0.374121 Biso 1.000000  H     
 H22    1.0    0.939230    0.720186    0.281879 Biso 1.000000  H     
 H23    1.0    0.147967    0.220148    0.781951 Biso 1.000000  H     
 H24    1.0    0.439233    0.720148    0.874049 Biso 1.000000  H     
 H25    1.0    0.890651    0.155900    0.292528 Biso 1.000000  H     
 H26    1.0    0.696549    0.655900    0.363472 Biso 1.000000  H     
 H27    1.0    0.390651    0.155932    0.863657 Biso 1.000000  H     
 H28    1.0    0.196549    0.655932    0.792343 Biso 1.000000  H     
 H29    1.0    0.872922    0.218055    0.481350 Biso 1.000000  H     
 H30    1.0    0.714278    0.718055    0.174650 Biso 1.000000  H     
 H31    1.0    0.372915    0.217918    0.674712 Biso 1.000000  H     
 H32    1.0    0.214285    0.717918    0.981288 Biso 1.000000  H     
 N1     1.0    0.727760    0.268457    0.307371 Biso 1.000000  N     
 N2     1.0    0.859440    0.768457    0.348629 Biso 1.000000  N     
 N3     1.0    0.227761    0.268478    0.848599 Biso 1.000000  N     
 N4     1.0    0.359439    0.768478    0.807401 Biso 1.000000  N     
 N5     1.0    0.877917    0.234027    0.352009 Biso 1.000000  N     
 N6     1.0    0.709283    0.734027    0.303991 Biso 1.000000  N     
 N7     1.0    0.377916    0.234006    0.804021 Biso 1.000000  N     
 N8     1.0    0.209284    0.734006    0.851979 Biso 1.000000  N     
