_cell_length_a                         12.531950
_cell_length_b                         12.531950
_cell_length_c                         8.252197
_cell_angle_alpha                      90.000000
_cell_angle_beta                       90.000000
_cell_angle_gamma                      120.000008
_space_group_IT_number                 1
 loop_
 _space_group_symop_operation_xyz 
 'x, y, z' 
 loop_ 
 _atom_site_label 
 _atom_site_occupancy 
 _atom_site_fract_x 
 _atom_site_fract_y
 _atom_site_fract_z
 _atom_site_adp_type
 _atom_site_U_iso_or_equiv
 _atom_site_type_symbol
 Ni1    1.0    0.162406    0.164255    0.754042 Biso 1.000000  Ni    
 Ni2    1.0    0.831849    0.497594    0.754042 Biso 1.000000  Ni    
 Ni3    1.0    0.495745    0.828151    0.754042 Biso 1.000000  Ni    
 Ni4    1.0    0.497594    0.495745    0.254042 Biso 1.000000  Ni    
 Ni5    1.0    0.828151    0.162406    0.254042 Biso 1.000000  Ni    
 Ni6    1.0    0.164255    0.831849    0.254042 Biso 1.000000  Ni    
 O1     1.0    0.095045    0.254983    0.897303 Biso 1.000000  O     
 O2     1.0    0.989937    0.564955    0.897303 Biso 1.000000  O     
 O3     1.0    0.405017    0.670063    0.897303 Biso 1.000000  O     
 O4     1.0    0.564955    0.405017    0.397303 Biso 1.000000  O     
 O5     1.0    0.670063    0.095045    0.397303 Biso 1.000000  O     
 O6     1.0    0.254983    0.989937    0.397303 Biso 1.000000  O     
 O7     1.0    0.984935    0.256291    0.109633 Biso 1.000000  O     
 O8     1.0    0.101356    0.675065    0.109633 Biso 1.000000  O     
 O9     1.0    0.403709    0.558644    0.109633 Biso 1.000000  O     
 O10    1.0    0.675065    0.403709    0.609633 Biso 1.000000  O     
 O11    1.0    0.558644    0.984935    0.609633 Biso 1.000000  O     
 O12    1.0    0.256291    0.101356    0.609633 Biso 1.000000  O     
 O13    1.0    0.321308    0.230045    0.897254 Biso 1.000000  O     
 O14    1.0    0.738736    0.338692    0.897254 Biso 1.000000  O     
 O15    1.0    0.429955    0.921264    0.897254 Biso 1.000000  O     
 O16    1.0    0.338692    0.429955    0.397254 Biso 1.000000  O     
 O17    1.0    0.921264    0.321308    0.397254 Biso 1.000000  O     
 O18    1.0    0.230045    0.738736    0.397254 Biso 1.000000  O     
 O19    1.0    0.432930    0.336981    0.111172 Biso 1.000000  O     
 O20    1.0    0.734052    0.227070    0.111172 Biso 1.000000  O     
 O21    1.0    0.323019    0.925948    0.111172 Biso 1.000000  O     
 O22    1.0    0.227070    0.323019    0.611172 Biso 1.000000  O     
 O23    1.0    0.925948    0.432930    0.611172 Biso 1.000000  O     
 O24    1.0    0.336981    0.734052    0.611172 Biso 1.000000  O     
 O25    1.0    0.068919    0.005410    0.895918 Biso 1.000000  O     
 O26    1.0    0.766491    0.591081    0.895918 Biso 1.000000  O     
 O27    1.0    0.654590    0.893509    0.895918 Biso 1.000000  O     
 O28    1.0    0.591081    0.654590    0.395918 Biso 1.000000  O     
 O29    1.0    0.893509    0.068919    0.395918 Biso 1.000000  O     
 O30    1.0    0.005410    0.766491    0.395918 Biso 1.000000  O     
 O31    1.0    0.072022    0.898324    0.110700 Biso 1.000000  O     
 O32    1.0    0.656301    0.587978    0.110700 Biso 1.000000  O     
 O33    1.0    0.761676    0.003699    0.110700 Biso 1.000000  O     
 O34    1.0    0.587978    0.761676    0.610700 Biso 1.000000  O     
 O35    1.0    0.003699    0.072022    0.610700 Biso 1.000000  O     
 O36    1.0    0.898324    0.656301    0.610700 Biso 1.000000  O     
 C1     1.0    0.013815    0.200091    0.006567 Biso 1.000000  C     
 C2     1.0    0.016276    0.646185    0.006567 Biso 1.000000  C     
 C3     1.0    0.459909    0.643724    0.006567 Biso 1.000000  C     
 C4     1.0    0.646185    0.459909    0.506567 Biso 1.000000  C     
 C5     1.0    0.643724    0.013815    0.506567 Biso 1.000000  C     
 C6     1.0    0.200091    0.016276    0.506567 Biso 1.000000  C     
 C7     1.0    0.346112    0.307117    0.011277 Biso 1.000000  C     
 C8     1.0    0.791005    0.313888    0.011277 Biso 1.000000  C     
 C9     1.0    0.352883    0.868995    0.011277 Biso 1.000000  C     
 C10    1.0    0.313888    0.352883    0.511277 Biso 1.000000  C     
 C11    1.0    0.868995    0.346112    0.511277 Biso 1.000000  C     
 C12    1.0    0.307117    0.791005    0.511277 Biso 1.000000  C     
 C13    1.0    0.125441    0.976211    0.997706 Biso 1.000000  C     
 C14    1.0    0.680770    0.534559    0.997706 Biso 1.000000  C     
 C15    1.0    0.683789    0.979230    0.997706 Biso 1.000000  C     
 C16    1.0    0.534559    0.683789    0.497706 Biso 1.000000  C     
 C17    1.0    0.979230    0.125441    0.497706 Biso 1.000000  C     
 C18    1.0    0.976211    0.680770    0.497706 Biso 1.000000  C     
 H1     1.0    0.967127    0.098992    0.010699 Biso 1.000000  H     
 H2     1.0    0.961866    0.692873    0.010699 Biso 1.000000  H     
 H3     1.0    0.561008    0.698134    0.010699 Biso 1.000000  H     
 H4     1.0    0.692873    0.561008    0.510699 Biso 1.000000  H     
 H5     1.0    0.698134    0.967127    0.510699 Biso 1.000000  H     
 H6     1.0    0.098992    0.961866    0.510699 Biso 1.000000  H     
 H7     1.0    0.289257    0.349882    0.022450 Biso 1.000000  H     
 H8     1.0    0.890625    0.370743    0.022450 Biso 1.000000  H     
 H9     1.0    0.310118    0.769375    0.022450 Biso 1.000000  H     
 H10    1.0    0.370743    0.310118    0.522450 Biso 1.000000  H     
 H11    1.0    0.769375    0.289257    0.522450 Biso 1.000000  H     
 H12    1.0    0.349882    0.890625    0.522450 Biso 1.000000  H     
 H13    1.0    0.225641    0.019868    0.989348 Biso 1.000000  H     
 H14    1.0    0.624228    0.434359    0.989348 Biso 1.000000  H     
 H15    1.0    0.640132    0.035772    0.989348 Biso 1.000000  H     
 H16    1.0    0.434359    0.640132    0.489348 Biso 1.000000  H     
 H17    1.0    0.035772    0.225641    0.489348 Biso 1.000000  H     
 H18    1.0    0.019868    0.624228    0.489348 Biso 1.000000  H     
 H19    1.0    0.130007    0.401840    0.798470 Biso 1.000000  H     
 H20    1.0    0.141263    0.533077    0.880782 Biso 1.000000  H     
 H21    1.0    0.259292    0.543581    0.764902 Biso 1.000000  H     
 H22    1.0    0.557076    0.250510    0.331052 Biso 1.000000  H     
 H23    1.0    0.545820    0.119273    0.248740 Biso 1.000000  H     
 H24    1.0    0.427792    0.108769    0.364621 Biso 1.000000  H     
 H25    1.0    0.120943    0.508663    0.682595 Biso 1.000000  H     
 H26    1.0    0.454343    0.175263    0.182595 Biso 1.000000  H     
 H27    1.0    0.473747    0.198969    0.881392 Biso 1.000000  H     
 H28    1.0    0.592818    0.211271    0.765587 Biso 1.000000  H     
 H29    1.0    0.464182    0.068511    0.798229 Biso 1.000000  H     
 H30    1.0    0.213377    0.453515    0.248660 Biso 1.000000  H     
 H31    1.0    0.094304    0.441212    0.364466 Biso 1.000000  H     
 H32    1.0    0.222941    0.583972    0.331823 Biso 1.000000  H     
 H33    1.0    0.454187    0.175081    0.682848 Biso 1.000000  H     
 H34    1.0    0.120787    0.508481    0.182848 Biso 1.000000  H     
 H35    1.0    0.887075    0.844744    0.127296 Biso 1.000000  H     
 H36    1.0    0.743814    0.749824    0.209226 Biso 1.000000  H     
 H37    1.0    0.818497    0.906794    0.243426 Biso 1.000000  H     
 H38    1.0    0.745849    0.822832    0.759337 Biso 1.000000  H     
 H39    1.0    0.889110    0.917751    0.677407 Biso 1.000000  H     
 H40    1.0    0.814427    0.760781    0.643207 Biso 1.000000  H     
 H41    1.0    0.872434    0.818128    0.325452 Biso 1.000000  H     
 H42    1.0    0.872434    0.818128    0.825452 Biso 1.000000  H     
 N1     1.0    0.163301    0.496700    0.782746 Biso 1.000000  N     
 N2     1.0    0.496701    0.163300    0.282746 Biso 1.000000  N     
 N3     1.0    0.496701    0.163300    0.783062 Biso 1.000000  N     
 N4     1.0    0.163301    0.496700    0.283062 Biso 1.000000  N     
 N5     1.0    0.829999    0.830000    0.225273 Biso 1.000000  N     
 N6     1.0    0.829999    0.830000    0.725273 Biso 1.000000  N     
