_cell_length_a                         12.558309
_cell_length_b                         12.558312
_cell_length_c                         8.381599
_cell_angle_alpha                      89.999947
_cell_angle_beta                       90.000084
_cell_angle_gamma                      120.000061
_space_group_IT_number                 1
 loop_
 _space_group_symop_operation_xyz 
 'x, y, z' 
 loop_ 
 _atom_site_label 
 _atom_site_occupancy 
 _atom_site_fract_x 
 _atom_site_fract_y
 _atom_site_fract_z
 _atom_site_adp_type
 _atom_site_U_iso_or_equiv
 _atom_site_type_symbol
 Zn1    1.0    0.161560    0.165092    0.753456 Biso 1.000000  Zn    
 Zn2    1.0    0.165092    0.833533    0.253455 Biso 1.000000  Zn    
 Zn3    1.0    0.833533    0.498440    0.753455 Biso 1.000000  Zn    
 Zn4    1.0    0.498440    0.494907    0.253456 Biso 1.000000  Zn    
 Zn5    1.0    0.494908    0.826467    0.753455 Biso 1.000000  Zn    
 Zn6    1.0    0.826467    0.161560    0.253456 Biso 1.000000  Zn    
 O1     1.0    0.093355    0.256438    0.897727 Biso 1.000000  O     
 O2     1.0    0.256439    0.993084    0.397727 Biso 1.000000  O     
 O3     1.0    0.993084    0.566645    0.897727 Biso 1.000000  O     
 O4     1.0    0.566645    0.403561    0.397727 Biso 1.000000  O     
 O5     1.0    0.403561    0.666916    0.897727 Biso 1.000000  O     
 O6     1.0    0.666916    0.093354    0.397727 Biso 1.000000  O     
 O7     1.0    0.985697    0.260187    0.108359 Biso 1.000000  O     
 O8     1.0    0.260187    0.104490    0.608359 Biso 1.000000  O     
 O9     1.0    0.104490    0.674303    0.108359 Biso 1.000000  O     
 O10    1.0    0.674303    0.399813    0.608359 Biso 1.000000  O     
 O11    1.0    0.399813    0.555510    0.108359 Biso 1.000000  O     
 O12    1.0    0.555510    0.985697    0.608359 Biso 1.000000  O     
 O13    1.0    0.322603    0.229718    0.898771 Biso 1.000000  O     
 O14    1.0    0.229718    0.737115    0.398770 Biso 1.000000  O     
 O15    1.0    0.737115    0.337396    0.898770 Biso 1.000000  O     
 O16    1.0    0.337397    0.430282    0.398771 Biso 1.000000  O     
 O17    1.0    0.430282    0.922885    0.898771 Biso 1.000000  O     
 O18    1.0    0.922885    0.322602    0.398770 Biso 1.000000  O     
 O19    1.0    0.434522    0.333825    0.111001 Biso 1.000000  O     
 O20    1.0    0.333825    0.729303    0.611002 Biso 1.000000  O     
 O21    1.0    0.729303    0.225477    0.111002 Biso 1.000000  O     
 O22    1.0    0.225478    0.326174    0.611002 Biso 1.000000  O     
 O23    1.0    0.326175    0.930697    0.111002 Biso 1.000000  O     
 O24    1.0    0.930697    0.434522    0.611001 Biso 1.000000  O     
 O25    1.0    0.064360    0.002753    0.893574 Biso 1.000000  O     
 O26    1.0    0.002753    0.768392    0.393574 Biso 1.000000  O     
 O27    1.0    0.768393    0.595640    0.893575 Biso 1.000000  O     
 O28    1.0    0.595639    0.657246    0.393574 Biso 1.000000  O     
 O29    1.0    0.657247    0.891607    0.893574 Biso 1.000000  O     
 O30    1.0    0.891607    0.064360    0.393574 Biso 1.000000  O     
 O31    1.0    0.070611    0.899292    0.107479 Biso 1.000000  O     
 O32    1.0    0.899292    0.658681    0.607479 Biso 1.000000  O     
 O33    1.0    0.658681    0.589387    0.107480 Biso 1.000000  O     
 O34    1.0    0.589388    0.760708    0.607479 Biso 1.000000  O     
 O35    1.0    0.760708    0.001319    0.107479 Biso 1.000000  O     
 O36    1.0    0.001319    0.070612    0.607479 Biso 1.000000  O     
 C1     1.0    0.015714    0.203651    0.009618 Biso 1.000000  C     
 C2     1.0    0.203651    0.017938    0.509618 Biso 1.000000  C     
 C3     1.0    0.017938    0.644286    0.009618 Biso 1.000000  C     
 C4     1.0    0.644286    0.456348    0.509618 Biso 1.000000  C     
 C5     1.0    0.456349    0.642062    0.009618 Biso 1.000000  C     
 C6     1.0    0.642062    0.015713    0.509618 Biso 1.000000  C     
 C7     1.0    0.345671    0.302308    0.016035 Biso 1.000000  C     
 C8     1.0    0.302308    0.786637    0.516034 Biso 1.000000  C     
 C9     1.0    0.786638    0.314329    0.016034 Biso 1.000000  C     
 C10    1.0    0.314329    0.357692    0.516034 Biso 1.000000  C     
 C11    1.0    0.357693    0.873363    0.016034 Biso 1.000000  C     
 C12    1.0    0.873363    0.345670    0.516034 Biso 1.000000  C     
 C13    1.0    0.121217    0.972075    0.990677 Biso 1.000000  C     
 C14    1.0    0.972074    0.680858    0.490678 Biso 1.000000  C     
 C15    1.0    0.680858    0.538782    0.990678 Biso 1.000000  C     
 C16    1.0    0.538783    0.687925    0.490678 Biso 1.000000  C     
 C17    1.0    0.687925    0.979142    0.990678 Biso 1.000000  C     
 C18    1.0    0.979142    0.121217    0.490678 Biso 1.000000  C     
 H1     1.0    0.973341    0.103279    0.019429 Biso 1.000000  H     
 H2     1.0    0.103279    0.959938    0.519428 Biso 1.000000  H     
 H3     1.0    0.959939    0.686659    0.019429 Biso 1.000000  H     
 H4     1.0    0.686659    0.556720    0.519429 Biso 1.000000  H     
 H5     1.0    0.556721    0.700061    0.019428 Biso 1.000000  H     
 H6     1.0    0.700061    0.973340    0.519428 Biso 1.000000  H     
 H7     1.0    0.284703    0.339833    0.034242 Biso 1.000000  H     
 H8     1.0    0.339833    0.885129    0.534243 Biso 1.000000  H     
 H9     1.0    0.885130    0.375296    0.034242 Biso 1.000000  H     
 H10    1.0    0.375297    0.320166    0.534242 Biso 1.000000  H     
 H11    1.0    0.320167    0.774870    0.034243 Biso 1.000000  H     
 H12    1.0    0.774870    0.284703    0.534242 Biso 1.000000  H     
 H13    1.0    0.220185    0.009982    0.975129 Biso 1.000000  H     
 H14    1.0    0.009982    0.619798    0.475130 Biso 1.000000  H     
 H15    1.0    0.619798    0.439814    0.975131 Biso 1.000000  H     
 H16    1.0    0.439814    0.650018    0.475130 Biso 1.000000  H     
 H17    1.0    0.650018    0.040203    0.975130 Biso 1.000000  H     
 H18    1.0    0.040203    0.220185    0.475131 Biso 1.000000  H     
 H19    1.0    0.133868    0.404855    0.821873 Biso 1.000000  H     
 H20    1.0    0.415985    0.107310    0.356935 Biso 1.000000  H     
 H21    1.0    0.119696    0.531457    0.865057 Biso 1.000000  H     
 H22    1.0    0.541292    0.253148    0.338118 Biso 1.000000  H     
 H23    1.0    0.259175    0.550693    0.803058 Biso 1.000000  H     
 H24    1.0    0.555464    0.126546    0.294935 Biso 1.000000  H     
 H25    1.0    0.473216    0.166422    0.176607 Biso 1.000000  H     
 H26    1.0    0.139882    0.499755    0.676607 Biso 1.000000  H     
 H27    1.0    0.451345    0.196293    0.865592 Biso 1.000000  H     
 H28    1.0    0.206185    0.586386    0.339093 Biso 1.000000  H     
 H29    1.0    0.592451    0.219128    0.803776 Biso 1.000000  H     
 H30    1.0    0.223879    0.461781    0.294960 Biso 1.000000  H     
 H31    1.0    0.469043    0.071691    0.821458 Biso 1.000000  H     
 H32    1.0    0.082776    0.438946    0.356775 Biso 1.000000  H     
 H33    1.0    0.473139    0.166314    0.676769 Biso 1.000000  H     
 H34    1.0    0.139805    0.499647    0.176769 Biso 1.000000  H     
 H35    1.0    0.905767    0.849438    0.141186 Biso 1.000000  H     
 H36    1.0    0.837764    0.762525    0.649242 Biso 1.000000  H     
 H37    1.0    0.754416    0.744065    0.184311 Biso 1.000000  H     
 H38    1.0    0.739073    0.812519    0.711331 Biso 1.000000  H     
 H39    1.0    0.807077    0.899431    0.203275 Biso 1.000000  H     
 H40    1.0    0.890422    0.917891    0.668205 Biso 1.000000  H     
 H41    1.0    0.853487    0.826964    0.329612 Biso 1.000000  H     
 H42    1.0    0.853487    0.826966    0.829613 Biso 1.000000  H     
 N1     1.0    0.496667    0.163333    0.292528 Biso 1.000000  N     
 N2     1.0    0.163333    0.496665    0.792528 Biso 1.000000  N     
 N3     1.0    0.496665    0.163328    0.792752 Biso 1.000000  N     
 N4     1.0    0.163334    0.496663    0.292752 Biso 1.000000  N     
 N5     1.0    0.830000    0.830003    0.213672 Biso 1.000000  N     
 N6     1.0    0.830001    0.830002    0.713672 Biso 1.000000  N     
