# CIF file created by FINDSYM, version 7.1.3

data_findsym-output
_audit_creation_method FINDSYM

_cell_length_a    8.6512410000
_cell_length_b    7.7541930000
_cell_length_c    11.4882880000
_cell_angle_alpha 90.0000000000
_cell_angle_beta  90.0000000000
_cell_angle_gamma 90.0000000000
_cell_volume      770.6733319486

_symmetry_space_group_name_H-M "P n a 21"
_symmetry_Int_Tables_number 33
_space_group.reference_setting '033:P 2c -2n'
_space_group.transform_Pp_abc a,b,c;0,0,0

loop_
_space_group_symop_id
_space_group_symop_operation_xyz
1 x,y,z
2 -x,-y,z+1/2
3 -x+1/2,y+1/2,z+1/2
4 x+1/2,-y+1/2,z

loop_
_atom_site_label
_atom_site_type_symbol
_atom_site_symmetry_multiplicity
_atom_site_Wyckoff_label
_atom_site_fract_x
_atom_site_fract_y
_atom_site_fract_z
_atom_site_occupancy
_atom_site_fract_symmform
Zn1 Zn   4 a 0.03783  -0.00043 0.51162 1.00000 Dx,Dy,Dz 
O1  O    4 a 0.06260  0.14841  0.66765 1.00000 Dx,Dy,Dz 
O2  O    4 a 0.00641  0.14168  0.85768 1.00000 Dx,Dy,Dz 
O3  O    4 a -0.05453 0.23034  0.43927 1.00000 Dx,Dy,Dz 
O4  O    4 a 0.75440  0.42495  0.43874 1.00000 Dx,Dy,Dz 
O5  O    4 a 0.81851  -0.07172 0.57988 1.00000 Dx,Dy,Dz 
O6  O    4 a 0.62794  0.73362  0.58276 1.00000 Dx,Dy,Dz 
C1  C    4 a 0.03715  0.06705  0.76224 1.00000 Dx,Dy,Dz 
C2  C    4 a 0.82298  0.29405  0.48180 1.00000 Dx,Dy,Dz 
C3  C    4 a 0.76455  0.78114  0.55523 1.00000 Dx,Dy,Dz 
H1  H    4 a 0.04215  -0.07496 0.76019 1.00000 Dx,Dy,Dz 
H2  H    4 a 0.77250  0.23370  0.55995 1.00000 Dx,Dy,Dz 
H3  H    4 a 0.83755  0.68897  0.50694 1.00000 Dx,Dy,Dz 
H4  H    4 a 0.56974  -0.09000 0.67765 1.00000 Dx,Dy,Dz 
H5  H    4 a 0.56871  0.12848  0.70275 1.00000 Dx,Dy,Dz 
H6  H    4 a 0.64506  -0.01163 0.80337 1.00000 Dx,Dy,Dz 
H7  H    4 a 0.41381  0.89803  0.85279 1.00000 Dx,Dy,Dz 
H8  H    4 a 0.39611  0.10948  0.83953 1.00000 Dx,Dy,Dz 
N1  N    4 a 0.40511  -0.00346 0.79306 1.00000 Dx,Dy,Dz 
N2  N    4 a 0.55763  0.00590  0.74108 1.00000 Dx,Dy,Dz 