_cell_length_a     8.6512
_cell_length_b    11.4883
_cell_length_c     7.7542
_cell_angle_alpha 90.0
_cell_angle_beta 90.0
_cell_angle_gamma 90.0
_space_group_IT_number                 1
 loop_
 _space_group_symop_operation_xyz 
 'x, y, z' 
 loop_ 
 _atom_site_label 
 _atom_site_occupancy 
 _atom_site_fract_x 
 _atom_site_fract_y
 _atom_site_fract_z
 _atom_site_adp_type
 _atom_site_U_iso_or_equiv
 _atom_site_type_symbol
 Zn1    1.0    0.284827    0.499918    0.311569 Biso 1.000000  Zn    
 Zn2    1.0    0.209173   -0.000082    0.312431 Biso 1.000000  Zn    
 Zn3    1.0    0.784827    0.499918    0.812431 Biso 1.000000  Zn    
 Zn4    1.0    0.709173   -0.000082    0.811569 Biso 1.000000  Zn    
 O1     1.0    0.240589    0.345976    0.170323 Biso 1.000000  O     
 O2     1.0    0.253411    0.845976    0.453677 Biso 1.000000  O     
 O3     1.0    0.740589    0.345976    0.953677 Biso 1.000000  O     
 O4     1.0    0.753411    0.845976    0.670323 Biso 1.000000  O     
 O5     1.0    0.184396    0.155946    0.163594 Biso 1.000000  O     
 O6     1.0    0.309604    0.655946    0.460406 Biso 1.000000  O     
 O7     1.0    0.684396    0.155946    0.960406 Biso 1.000000  O     
 O8     1.0    0.809604    0.655946    0.663593 Biso 1.000000  O     
 O9     1.0    0.374937    0.571058    0.078377 Biso 1.000000  O     
 O10    1.0    0.119063    0.071058    0.545623 Biso 1.000000  O     
 O11    1.0    0.874937    0.571058    0.045623 Biso 1.000000  O     
 O12    1.0    0.619063    0.071058    0.578377 Biso 1.000000  O     
 O13    1.0    0.565514    0.568179    0.883720 Biso 1.000000  O     
 O14    1.0   -0.071514    0.068179    0.740280 Biso 1.000000  O     
 O15    1.0    0.065514    0.568179    0.240280 Biso 1.000000  O     
 O16    1.0    0.428486    0.068179    0.383720 Biso 1.000000  O     
 O17    1.0    0.501401    0.427037    0.387045 Biso 1.000000  O     
 O18    1.0   -0.007401    0.927037    0.236955 Biso 1.000000  O     
 O19    1.0    1.001401    0.427037    0.736955 Biso 1.000000  O     
 O20    1.0    0.492599    0.927037    0.887045 Biso 1.000000  O     
 O21    1.0    0.692474    0.427574    0.581659 Biso 1.000000  O     
 O22    1.0    0.801526    0.927574    0.042341 Biso 1.000000  O     
 O23    1.0    0.192474    0.427574    0.542341 Biso 1.000000  O     
 O24    1.0    0.301526    0.927574    0.081659 Biso 1.000000  O     
 C1     1.0    0.209847    0.250539    0.244954 Biso 1.000000  C     
 C2     1.0    0.284153    0.750539    0.379046 Biso 1.000000  C     
 C3     1.0    0.709847    0.250539    0.879046 Biso 1.000000  C     
 C4     1.0    0.784153    0.750539    0.744954 Biso 1.000000  C     
 C5     1.0    0.511548    0.543534    0.030859 Biso 1.000000  C     
 C6     1.0   -0.017548    0.043534    0.593141 Biso 1.000000  C     
 C7     1.0    1.011548    0.543534    0.093141 Biso 1.000000  C     
 C8     1.0    0.482452    0.043534    0.530859 Biso 1.000000  C     
 C9     1.0    0.569985    0.470105    0.517955 Biso 1.000000  C     
 C10    1.0   -0.075985    0.970105    0.106045 Biso 1.000000  C     
 C11    1.0    0.069985    0.470105    0.606045 Biso 1.000000  C     
 C12    1.0    0.424015    0.970105    0.017955 Biso 1.000000  C     
 H1     1.0    0.204850    0.248487    0.386963 Biso 1.000000  H     
 H2     1.0    0.289150    0.748487    0.237037 Biso 1.000000  H     
 H3     1.0    0.704850    0.248487    0.737037 Biso 1.000000  H     
 H4     1.0    0.789150    0.748487    0.886963 Biso 1.000000  H     
 H5     1.0    0.584545    0.495240    0.123032 Biso 1.000000  H     
 H6     1.0   -0.090545    0.995240    0.500968 Biso 1.000000  H     
 H7     1.0    0.084545    0.495240    0.000968 Biso 1.000000  H     
 H8     1.0    0.409455    0.995240    0.623032 Biso 1.000000  H     
 H9     1.0    0.519498    0.548248    0.578303 Biso 1.000000  H     
 H10    1.0   -0.025498    0.048248    0.045697 Biso 1.000000  H     
 H11    1.0    1.019498    0.548248    0.545697 Biso 1.000000  H     
 H12    1.0    0.474502    0.048248    0.078303 Biso 1.000000  H     
 H13    1.0    0.673185    0.190240    0.185679 Biso 1.000000  H     
 H14    1.0    0.820815    0.690240    0.438321 Biso 1.000000  H     
 H15    1.0    0.173229    0.190732    0.938920 Biso 1.000000  H     
 H16    1.0    0.320771    0.690732    0.685080 Biso 1.000000  H     
 H17    1.0    0.682479    0.166253    0.404188 Biso 1.000000  H     
 H18    1.0    0.811521    0.666253    0.219812 Biso 1.000000  H     
 H19    1.0    0.182385    0.165927    0.720603 Biso 1.000000  H     
 H20    1.0    0.311615    0.665927    0.903397 Biso 1.000000  H     
 H21    1.0    0.601926    0.291668    0.323510 Biso 1.000000  H     
 H22    1.0    0.892074    0.791668    0.300490 Biso 1.000000  H     
 H23    1.0    0.101935    0.291662    0.800311 Biso 1.000000  H     
 H24    1.0    0.392065    0.791662    0.823689 Biso 1.000000  H     
 H25    1.0    0.830094    0.359374    0.251227 Biso 1.000000  H     
 H26    1.0    0.663906    0.859374    0.372773 Biso 1.000000  H     
 H27    1.0    0.330175    0.359578    0.871873 Biso 1.000000  H     
 H28    1.0    0.163825    0.859578    0.752127 Biso 1.000000  H     
 H29    1.0    0.855444    0.300722    0.443943 Biso 1.000000  H     
 H30    1.0    0.638556    0.800722    0.180057 Biso 1.000000  H     
 H31    1.0    0.355387    0.300202    0.679623 Biso 1.000000  H     
 H32    1.0    0.138613    0.800201    0.944378 Biso 1.000000  H     
 N1     1.0    0.841880    0.281384    0.315298 Biso 1.000000  N     
 N2     1.0    0.652120    0.781384    0.308702 Biso 1.000000  N     
 N3     1.0    0.341889    0.281347    0.808433 Biso 1.000000  N     
 N4     1.0    0.152111    0.781347    0.815567 Biso 1.000000  N     
 N5     1.0    0.689381    0.229361    0.306203 Biso 1.000000  N     
 N6     1.0    0.804619    0.729361    0.317797 Biso 1.000000  N     
 N7     1.0    0.189372    0.229398    0.818065 Biso 1.000000  N     
 N8     1.0    0.304628    0.729398    0.805935 Biso 1.000000  N     
