_cell_length_a     8.8650
_cell_length_b    11.4457
_cell_length_c     7.6344
_cell_angle_alpha 90.0
_cell_angle_beta 90.0
_cell_angle_gamma 90.0
_space_group_IT_number                 1
 loop_
 _space_group_symop_operation_xyz 
 'x, y, z' 
 loop_ 
 _atom_site_label 
 _atom_site_occupancy 
 _atom_site_fract_x 
 _atom_site_fract_y
 _atom_site_fract_z
 _atom_site_adp_type
 _atom_site_U_iso_or_equiv
 _atom_site_type_symbol
 Mg1    1.0    0.246455    0.500464    0.328187 Biso 1.000000  Mg    
 Mg2    1.0    0.301145    0.000464    0.327813 Biso 1.000000  Mg    
 Mg3    1.0    0.746455    0.500464    0.827813 Biso 1.000000  Mg    
 Mg4    1.0    0.801145    0.000464    0.828187 Biso 1.000000  Mg    
 O1     1.0    0.216669    0.344122    0.185829 Biso 1.000000  O     
 O2     1.0    0.330931    0.844122    0.470171 Biso 1.000000  O     
 O3     1.0    0.716669    0.344122    0.970171 Biso 1.000000  O     
 O4     1.0    0.830931    0.844122    0.685829 Biso 1.000000  O     
 O5     1.0    0.258527    0.155474    0.191133 Biso 1.000000  O     
 O6     1.0    0.289073    0.655474    0.464867 Biso 1.000000  O     
 O7     1.0    0.758527    0.155474    0.964867 Biso 1.000000  O     
 O8     1.0    0.789073    0.655474    0.691133 Biso 1.000000  O     
 O9     1.0    0.346761    0.566791    0.101123 Biso 1.000000  O     
 O10    1.0    0.200839    0.066791    0.554877 Biso 1.000000  O     
 O11    1.0    0.846761    0.566791    0.054877 Biso 1.000000  O     
 O12    1.0    0.700839    0.066791    0.601123 Biso 1.000000  O     
 O13    1.0    0.541945    0.572005    0.913874 Biso 1.000000  O     
 O14    1.0    0.005655    0.072005    0.742126 Biso 1.000000  O     
 O15    1.0    0.041945    0.572005    0.242126 Biso 1.000000  O     
 O16    1.0    0.505655    0.072005    0.413874 Biso 1.000000  O     
 O17    1.0    0.452679    0.430863    0.410944 Biso 1.000000  O     
 O18    1.0    0.094920    0.930863    0.245056 Biso 1.000000  O     
 O19    1.0    0.952680    0.430863    0.745056 Biso 1.000000  O     
 O20    1.0    0.594920    0.930863    0.910944 Biso 1.000000  O     
 O21    1.0    0.646772    0.435329    0.599333 Biso 1.000000  O     
 O22    1.0    0.900828    0.935329    0.056667 Biso 1.000000  O     
 O23    1.0    0.146772    0.435329    0.556667 Biso 1.000000  O     
 O24    1.0    0.400828    0.935329    0.099333 Biso 1.000000  O     
 C1     1.0    0.232140    0.249744    0.265857 Biso 1.000000  C     
 C2     1.0    0.315460    0.749744    0.390143 Biso 1.000000  C     
 C3     1.0    0.732140    0.249744    0.890143 Biso 1.000000  C     
 C4     1.0    0.815460    0.749744    0.765857 Biso 1.000000  C     
 C5     1.0    0.470740    0.529527    0.042499 Biso 1.000000  C     
 C6     1.0    0.076860    0.029527    0.613501 Biso 1.000000  C     
 C7     1.0    0.970740    0.529527    0.113501 Biso 1.000000  C     
 C8     1.0    0.576860    0.029527    0.542499 Biso 1.000000  C     
 C9     1.0    0.513157    0.460177    0.553273 Biso 1.000000  C     
 C10    1.0    0.034443    0.960177    0.102727 Biso 1.000000  C     
 C11    1.0    0.013157    0.460177    0.602727 Biso 1.000000  C     
 C12    1.0    0.534443    0.960177    0.053273 Biso 1.000000  C     
 H1     1.0    0.221486    0.250478    0.409955 Biso 1.000000  H     
 H2     1.0    0.326114    0.750478    0.246045 Biso 1.000000  H     
 H3     1.0    0.721486    0.250478    0.746045 Biso 1.000000  H     
 H4     1.0    0.826114    0.750478    0.909955 Biso 1.000000  H     
 H5     1.0    0.520180    0.455065    0.106991 Biso 1.000000  H     
 H6     1.0    0.027420    0.955065    0.549009 Biso 1.000000  H     
 H7     1.0    0.020180    0.455065    0.049009 Biso 1.000000  H     
 H8     1.0    0.527420    0.955065    0.606991 Biso 1.000000  H     
 H9     1.0    0.446895    0.511335    0.643529 Biso 1.000000  H     
 H10    1.0    0.100705    0.011335    0.012471 Biso 1.000000  H     
 H11    1.0    0.946895    0.511335    0.512471 Biso 1.000000  H     
 H12    1.0    0.600705    0.011335    0.143529 Biso 1.000000  H     
 H13    1.0    0.685516    0.357271    0.336447 Biso 1.000000  H     
 H14    1.0    0.862084    0.857271    0.319553 Biso 1.000000  H     
 H15    1.0    0.185518    0.357267    0.819352 Biso 1.000000  H     
 H16    1.0    0.362082    0.857267    0.836648 Biso 1.000000  H     
 H17    1.0    0.689779    0.255023    0.171305 Biso 1.000000  H     
 H18    1.0    0.857821    0.755023    0.484695 Biso 1.000000  H     
 H19    1.0    0.189786    0.255161    0.984691 Biso 1.000000  H     
 H20    1.0    0.357814    0.755161    0.671309 Biso 1.000000  H     
 H21    1.0    0.618195    0.220778    0.375113 Biso 1.000000  H     
 H22    1.0    0.929405    0.720778    0.280887 Biso 1.000000  H     
 H23    1.0    0.118193    0.220742    0.780954 Biso 1.000000  H     
 H24    1.0    0.429407    0.720742    0.875046 Biso 1.000000  H     
 H25    1.0    0.845497    0.215643    0.487510 Biso 1.000000  H     
 H26    1.0    0.702103    0.715643    0.168490 Biso 1.000000  H     
 H27    1.0    0.345489    0.215508    0.668553 Biso 1.000000  H     
 H28    1.0    0.202111    0.715508    0.987447 Biso 1.000000  H     
 H29    1.0    0.865182    0.153120    0.293260 Biso 1.000000  H     
 H30    1.0    0.682418    0.653120    0.362740 Biso 1.000000  H     
 H31    1.0    0.365181    0.153152    0.862923 Biso 1.000000  H     
 H32    1.0    0.182419    0.653152    0.793077 Biso 1.000000  H     
 N1     1.0    0.852076    0.232404    0.355137 Biso 1.000000  N     
 N2     1.0    0.695524    0.732404    0.300863 Biso 1.000000  N     
 N3     1.0    0.352075    0.232383    0.800893 Biso 1.000000  N     
 N4     1.0    0.195525    0.732383    0.855107 Biso 1.000000  N     
 N5     1.0    0.700682    0.268622    0.307177 Biso 1.000000  N     
 N6     1.0    0.846918    0.768622    0.348823 Biso 1.000000  N     
 N7     1.0    0.200684    0.268644    0.848793 Biso 1.000000  N     
 N8     1.0    0.346916    0.768644    0.807207 Biso 1.000000  N     
