_cell_length_a     8.6279
_cell_length_b    11.4587
_cell_length_c     7.7380
_cell_angle_alpha 90.0
_cell_angle_beta 90.0
_cell_angle_gamma 90.0
_space_group_IT_number                 1
 loop_
 _space_group_symop_operation_xyz 
 'x, y, z' 
 loop_ 
 _atom_site_label 
 _atom_site_occupancy 
 _atom_site_fract_x 
 _atom_site_fract_y
 _atom_site_fract_z
 _atom_site_adp_type
 _atom_site_U_iso_or_equiv
 _atom_site_type_symbol
 Co1    1.0    0.285959    0.499547    0.320092 Biso 1.000000  Co    
 Co2    1.0    0.226041   -0.000453    0.319908 Biso 1.000000  Co    
 Co3    1.0    0.785959    0.499547    0.819908 Biso 1.000000  Co    
 Co4    1.0    0.726041   -0.000453    0.820092 Biso 1.000000  Co    
 O1     1.0    0.245708    0.345598    0.178911 Biso 1.000000  O     
 O2     1.0    0.266292    0.845598    0.461089 Biso 1.000000  O     
 O3     1.0    0.745708    0.345598    0.961089 Biso 1.000000  O     
 O4     1.0    0.766292    0.845598    0.678911 Biso 1.000000  O     
 O5     1.0    0.201496    0.154797    0.174227 Biso 1.000000  O     
 O6     1.0    0.310503    0.654797    0.465773 Biso 1.000000  O     
 O7     1.0    0.701496    0.154797    0.965773 Biso 1.000000  O     
 O8     1.0    0.810504    0.654797    0.674227 Biso 1.000000  O     
 O9     1.0    0.377112    0.569261    0.087947 Biso 1.000000  O     
 O10    1.0    0.134888    0.069261    0.552053 Biso 1.000000  O     
 O11    1.0    0.877112    0.569261    0.052053 Biso 1.000000  O     
 O12    1.0    0.634888    0.069261    0.587947 Biso 1.000000  O     
 O13    1.0    0.569195    0.567744    0.893911 Biso 1.000000  O     
 O14    1.0   -0.057195    0.067743    0.746089 Biso 1.000000  O     
 O15    1.0    0.069195    0.567744    0.246089 Biso 1.000000  O     
 O16    1.0    0.442805    0.067743    0.393911 Biso 1.000000  O     
 O17    1.0    0.501209    0.426854    0.397021 Biso 1.000000  O     
 O18    1.0    0.010791    0.926854    0.242979 Biso 1.000000  O     
 O19    1.0    1.001209    0.426854    0.742979 Biso 1.000000  O     
 O20    1.0    0.510791    0.926854    0.897021 Biso 1.000000  O     
 O21    1.0    0.694324    0.428031    0.590428 Biso 1.000000  O     
 O22    1.0    0.817676    0.928031    0.049572 Biso 1.000000  O     
 O23    1.0    0.194324    0.428031    0.549572 Biso 1.000000  O     
 O24    1.0    0.317676    0.928031    0.090428 Biso 1.000000  O     
 C1     1.0    0.223175    0.249714    0.254721 Biso 1.000000  C     
 C2     1.0    0.288825    0.749714    0.385279 Biso 1.000000  C     
 C3     1.0    0.723175    0.249714    0.885279 Biso 1.000000  C     
 C4     1.0    0.788825    0.749714    0.754721 Biso 1.000000  C     
 C5     1.0    0.512632    0.539882    0.038908 Biso 1.000000  C     
 C6     1.0   -0.000632    0.039882    0.601092 Biso 1.000000  C     
 C7     1.0    1.012632    0.539882    0.101092 Biso 1.000000  C     
 C8     1.0    0.499368    0.039882    0.538908 Biso 1.000000  C     
 C9     1.0    0.568938    0.468331    0.529497 Biso 1.000000  C     
 C10    1.0   -0.056938    0.968330    0.110503 Biso 1.000000  C     
 C11    1.0    0.068938    0.468331    0.610503 Biso 1.000000  C     
 C12    1.0    0.443062    0.968330    0.029497 Biso 1.000000  C     
 H1     1.0    0.221922    0.247797    0.397087 Biso 1.000000  H     
 H2     1.0    0.290078    0.747797    0.242913 Biso 1.000000  H     
 H3     1.0    0.721922    0.247797    0.742913 Biso 1.000000  H     
 H4     1.0    0.790078    0.747797    0.897087 Biso 1.000000  H     
 H5     1.0    0.582895    0.487057    0.127190 Biso 1.000000  H     
 H6     1.0   -0.070895    0.987057    0.512810 Biso 1.000000  H     
 H7     1.0    0.082895    0.487057    0.012810 Biso 1.000000  H     
 H8     1.0    0.429105    0.987057    0.627190 Biso 1.000000  H     
 H9     1.0    0.515448    0.543147    0.594306 Biso 1.000000  H     
 H10    1.0   -0.003448    0.043147    0.045694 Biso 1.000000  H     
 H11    1.0    1.015447    0.543147    0.545694 Biso 1.000000  H     
 H12    1.0    0.496552    0.043147    0.094306 Biso 1.000000  H     
 H13    1.0    0.680469    0.215318    0.171398 Biso 1.000000  H     
 H14    1.0    0.831531    0.715318    0.468602 Biso 1.000000  H     
 H15    1.0    0.180513    0.215745    0.968875 Biso 1.000000  H     
 H16    1.0    0.331487    0.715745    0.671125 Biso 1.000000  H     
 H17    1.0    0.688380    0.150516    0.371539 Biso 1.000000  H     
 H18    1.0    0.823620    0.650516    0.268461 Biso 1.000000  H     
 H19    1.0    0.188333    0.150384    0.769129 Biso 1.000000  H     
 H20    1.0    0.323667    0.650384    0.870871 Biso 1.000000  H     
 H21    1.0    0.609714    0.287293    0.346055 Biso 1.000000  H     
 H22    1.0    0.902286    0.787293    0.293945 Biso 1.000000  H     
 H23    1.0    0.109713    0.287244    0.793812 Biso 1.000000  H     
 H24    1.0    0.402287    0.787244    0.846188 Biso 1.000000  H     
 H25    1.0    0.839851    0.364032    0.305450 Biso 1.000000  H     
 H26    1.0    0.672149    0.864032    0.334550 Biso 1.000000  H     
 H27    1.0    0.339886    0.364059    0.833842 Biso 1.000000  H     
 H28    1.0    0.172114    0.864059    0.806158 Biso 1.000000  H     
 H29    1.0    0.863515    0.270745    0.466394 Biso 1.000000  H     
 H30    1.0    0.648485    0.770745    0.173606 Biso 1.000000  H     
 H31    1.0    0.363465    0.270320    0.673458 Biso 1.000000  H     
 H32    1.0    0.148535    0.770320    0.966542 Biso 1.000000  H     
 N1     1.0    0.850245    0.276687    0.334569 Biso 1.000000  N     
 N2     1.0    0.661755    0.776687    0.305431 Biso 1.000000  N     
 N3     1.0    0.350246    0.276632    0.805252 Biso 1.000000  N     
 N4     1.0    0.161754    0.776632    0.834748 Biso 1.000000  N     
 N5     1.0    0.696590    0.229790    0.303746 Biso 1.000000  N     
 N6     1.0    0.815410    0.729790    0.336254 Biso 1.000000  N     
 N7     1.0    0.196589    0.229845    0.836433 Biso 1.000000  N     
 N8     1.0    0.315411    0.729845    0.803567 Biso 1.000000  N     
