# CIF file created by FINDSYM, version 7.1.3

data_findsym-output
_audit_creation_method FINDSYM

_cell_length_a    7.6484100000
_cell_length_b    7.8342700000
_cell_length_c    13.1820700000
_cell_angle_alpha 90.0000000000
_cell_angle_beta  90.0000000000
_cell_angle_gamma 90.0000000000
_cell_volume      789.8657985587

_symmetry_space_group_name_H-M "P 21 21 21"
_symmetry_Int_Tables_number 19
_space_group.reference_setting '019:P 2ac 2ab'
_space_group.transform_Pp_abc a,b,c;0,0,0

loop_
_space_group_symop_id
_space_group_symop_operation_xyz
1 x,y,z
2 x+1/2,-y+1/2,-z
3 -x,y+1/2,-z+1/2
4 -x+1/2,-y,z+1/2

loop_
_atom_site_label
_atom_site_type_symbol
_atom_site_symmetry_multiplicity
_atom_site_Wyckoff_label
_atom_site_fract_x
_atom_site_fract_y
_atom_site_fract_z
_atom_site_occupancy
_atom_site_fract_symmform
Zn1 Zn   4 a 0.54939  0.49412 0.08537  1.00000 Dx,Dy,Dz 
C1  C    4 a 0.41950  0.21913 0.23595  1.00000 Dx,Dy,Dz 
C2  C    4 a 0.28347  0.75510 0.02515  1.00000 Dx,Dy,Dz 
C3  C    4 a 0.30680  0.27129 -0.03433 1.00000 Dx,Dy,Dz 
H1  H    4 a 0.54802  0.16204 0.21917  1.00000 Dx,Dy,Dz 
H2  H    4 a 0.32716  0.72575 -0.05283 1.00000 Dx,Dy,Dz 
H3  H    4 a 0.22350  0.27707 0.03403  1.00000 Dx,Dy,Dz 
H4  H    4 a 0.20158  0.44646 0.21682  1.00000 Dx,Dy,Dz 
H5  H    4 a 0.06455  0.24583 0.27683  1.00000 Dx,Dy,Dz 
H6  H    4 a 0.88978  0.32640 0.21058  1.00000 Dx,Dy,Dz 
H7  H    4 a -0.07748 0.37696 0.33796  1.00000 Dx,Dy,Dz 
O1  O    4 a 0.38245  0.35905 0.19093  1.00000 Dx,Dy,Dz 
O2  O    4 a 0.31744  0.14505 0.29738  1.00000 Dx,Dy,Dz 
O3  O    4 a 0.34768  0.67313 0.09862  1.00000 Dx,Dy,Dz 
O4  O    4 a 0.16828  0.87134 0.03574  1.00000 Dx,Dy,Dz 
O5  O    4 a 0.44724  0.35486 -0.03760 1.00000 Dx,Dy,Dz 
O6  O    4 a 0.25328  0.17739 0.89242  1.00000 Dx,Dy,Dz 
O7  O    4 a 0.08288  0.49518 0.23746  1.00000 Dx,Dy,Dz 
N1  N    4 a -0.01671 0.35121 0.26794  1.00000 Dx,Dy,Dz 