# CIF file created by FINDSYM, version 7.1.3

data_findsym-output
_audit_creation_method FINDSYM

_cell_length_a    8.6278690000
_cell_length_b    7.7380150000
_cell_length_c    11.4587200000
_cell_angle_alpha 90.0000000000
_cell_angle_beta  90.0000000000
_cell_angle_gamma 90.0000000000
_cell_volume      765.0137077187

_symmetry_space_group_name_H-M "P n a 21"
_symmetry_Int_Tables_number 33
_space_group.reference_setting '033:P 2c -2n'
_space_group.transform_Pp_abc a,b,c;0,0,0

loop_
_space_group_symop_id
_space_group_symop_operation_xyz
1 x,y,z
2 -x,-y,z+1/2
3 -x+1/2,y+1/2,z+1/2
4 x+1/2,-y+1/2,z

loop_
_atom_site_label
_atom_site_type_symbol
_atom_site_symmetry_multiplicity
_atom_site_Wyckoff_label
_atom_site_fract_x
_atom_site_fract_y
_atom_site_fract_z
_atom_site_occupancy
_atom_site_fract_symmform
Co1 Co   4 a 0.03745  0.00011  0.51243 1.00000 Dx,Dy,Dz 
O1  O    4 a 0.06003  0.14636  0.66785 1.00000 Dx,Dy,Dz 
O2  O    4 a 0.00477  0.14050  0.85865 1.00000 Dx,Dy,Dz 
O3  O    4 a -0.05425 0.22926  0.44069 1.00000 Dx,Dy,Dz 
O4  O    4 a 0.75251  0.42259  0.43918 1.00000 Dx,Dy,Dz 
O5  O    4 a 0.82049  -0.07352 0.58007 1.00000 Dx,Dy,Dz 
O6  O    4 a 0.62854  0.73236  0.58192 1.00000 Dx,Dy,Dz 
C1  C    4 a 0.03282  0.06528  0.76264 1.00000 Dx,Dy,Dz 
C2  C    4 a 0.82163  0.29168  0.48236 1.00000 Dx,Dy,Dz 
C3  C    4 a 0.76533  0.77992  0.55391 1.00000 Dx,Dy,Dz 
H1  H    4 a 0.03408  -0.07709 0.76025 1.00000 Dx,Dy,Dz 
H2  H    4 a 0.77024  0.22980  0.55992 1.00000 Dx,Dy,Dz 
H3  H    4 a 0.83769  0.68870  0.50383 1.00000 Dx,Dy,Dz 
H4  H    4 a 0.57154  -0.09015 0.67741 1.00000 Dx,Dy,Dz 
H5  H    4 a 0.56982  0.12876  0.70284 1.00000 Dx,Dy,Dz 
H6  H    4 a 0.64672  -0.01177 0.80360 1.00000 Dx,Dy,Dz 
H7  H    4 a 0.41499  0.89686  0.85274 1.00000 Dx,Dy,Dz 
H8  H    4 a 0.39661  0.10874  0.83979 1.00000 Dx,Dy,Dz 
N1  N    4 a 0.40606  -0.00423 0.79300 1.00000 Dx,Dy,Dz 
N2  N    4 a 0.55910  0.00584  0.74109 1.00000 Dx,Dy,Dz 