_cell_length_a                         8.390532
_cell_length_b                         12.508689
_cell_length_c                         8.858274
_cell_angle_alpha                      97.491516
_cell_angle_beta                       90.000000
_cell_angle_gamma                      90.000000
_space_group_IT_number                 1
 loop_
 _space_group_symop_operation_xyz 
 'x, y, z' 
 loop_ 
 _atom_site_label 
 _atom_site_occupancy 
 _atom_site_fract_x 
 _atom_site_fract_y
 _atom_site_fract_z
 _atom_site_adp_type
 _atom_site_U_iso_or_equiv
 _atom_site_type_symbol
 Mn1    1.0    0.250664    1.000508    0.749990 Biso 1.000000  Mn    
 Mn2    1.0    0.749336    1.000508    0.249990 Biso 1.000000  Mn    
 Mn3    1.0    0.750664    0.500508    0.249990 Biso 1.000000  Mn    
 Mn4    1.0    0.249336    0.500508    0.749990 Biso 1.000000  Mn    
 O1     1.0    0.359980    0.160948    0.744716 Biso 1.000000  O     
 O2     1.0    0.640020    0.160948    0.244716 Biso 1.000000  O     
 O3     1.0    0.859980    0.660948    0.244716 Biso 1.000000  O     
 O4     1.0    0.140020    0.660948    0.744716 Biso 1.000000  O     
 O5     1.0    0.476256    0.554398    0.663574 Biso 1.000000  O     
 O6     1.0    0.523744    0.554398    0.163574 Biso 1.000000  O     
 O7     1.0    0.976256    0.054398    0.163574 Biso 1.000000  O     
 O8     1.0    0.023744    0.054398    0.663574 Biso 1.000000  O     
 O9     1.0    0.167076    0.051916    0.985620 Biso 1.000000  O     
 O10    1.0    0.832924    0.051916    0.485620 Biso 1.000000  O     
 O11    1.0    0.667076    0.551916    0.485620 Biso 1.000000  O     
 O12    1.0    0.332924    0.551916    0.985620 Biso 1.000000  O     
 O13    1.0    0.021566    0.448748    0.835294 Biso 1.000000  O     
 O14    1.0    0.978434    0.448748    0.335294 Biso 1.000000  O     
 O15    1.0    0.521566    0.948748    0.335294 Biso 1.000000  O     
 O16    1.0    0.478434    0.948748    0.835294 Biso 1.000000  O     
 O17    1.0    0.332416    0.950006    0.514770 Biso 1.000000  O     
 O18    1.0    0.667584    0.950006    0.014770 Biso 1.000000  O     
 O19    1.0    0.832416    0.450006    0.014770 Biso 1.000000  O     
 O20    1.0    0.167584    0.450006    0.514770 Biso 1.000000  O     
 O21    1.0    0.358740    0.340698    0.756076 Biso 1.000000  O     
 O22    1.0    0.641260    0.340698    0.256076 Biso 1.000000  O     
 O23    1.0    0.858740    0.840698    0.256076 Biso 1.000000  O     
 O24    1.0    0.141260    0.840698    0.756076 Biso 1.000000  O     
 C1     1.0    0.219620    0.825299    0.371449 Biso 1.000000  C     
 C2     1.0    0.780380    0.825299    0.871449 Biso 1.000000  C     
 C3     1.0    0.719620    0.325299    0.871449 Biso 1.000000  C     
 C4     1.0    0.280380    0.325299    0.371449 Biso 1.000000  C     
 C5     1.0    0.288060    0.250746    0.750428 Biso 1.000000  C     
 C6     1.0    0.711940    0.250746    0.250428 Biso 1.000000  C     
 C7     1.0    0.788060    0.750746    0.250428 Biso 1.000000  C     
 C8     1.0    0.211940    0.750746    0.750428 Biso 1.000000  C     
 C9     1.0    0.028136    0.031478    0.030810 Biso 1.000000  C     
 C10    1.0    0.971864    0.031478    0.530810 Biso 1.000000  C     
 C11    1.0    0.528136    0.531478    0.530810 Biso 1.000000  C     
 C12    1.0    0.471864    0.531478    0.030810 Biso 1.000000  C     
 C13    1.0    0.472556    0.966558    0.469850 Biso 1.000000  C     
 C14    1.0    0.527444    0.966558    0.969850 Biso 1.000000  C     
 C15    1.0    0.972556    0.466558    0.969850 Biso 1.000000  C     
 C16    1.0    0.027444    0.466558    0.469850 Biso 1.000000  C     
 C17    1.0    0.259150    0.634352    0.262978 Biso 1.000000  C     
 C18    1.0    0.740850    0.634352    0.762978 Biso 1.000000  C     
 C19    1.0    0.759150    0.134352    0.762978 Biso 1.000000  C     
 C20    1.0    0.240850    0.134352    0.262978 Biso 1.000000  C     
 H1     1.0    0.348140    0.839321    0.381431 Biso 1.000000  H     
 H2     1.0    0.651860    0.839321    0.881431 Biso 1.000000  H     
 H3     1.0    0.848140    0.339321    0.881431 Biso 1.000000  H     
 H4     1.0    0.151860    0.339321    0.381431 Biso 1.000000  H     
 H5     1.0    0.157690    0.899036    0.351452 Biso 1.000000  H     
 H6     1.0    0.842310    0.899036    0.851452 Biso 1.000000  H     
 H7     1.0    0.657690    0.399036    0.851452 Biso 1.000000  H     
 H8     1.0    0.342310    0.399036    0.351452 Biso 1.000000  H     
 H9     1.0    0.175750    0.798342    0.476304 Biso 1.000000  H     
 H10    1.0    0.824250    0.798342    0.976304 Biso 1.000000  H     
 H11    1.0    0.675750    0.298342    0.976304 Biso 1.000000  H     
 H12    1.0    0.324250    0.298342    0.476304 Biso 1.000000  H     
 H13    1.0    0.155840    0.250078    0.750454 Biso 1.000000  H     
 H14    1.0    0.844160    0.250078    0.250454 Biso 1.000000  H     
 H15    1.0    0.655840    0.750078    0.250454 Biso 1.000000  H     
 H16    1.0    0.344160    0.750078    0.750454 Biso 1.000000  H     
 H17    1.0    0.448340    0.491160    0.447274 Biso 1.000000  H     
 H18    1.0    0.551660    0.491160    0.947274 Biso 1.000000  H     
 H19    1.0    0.948340   -0.008840    0.947274 Biso 1.000000  H     
 H20    1.0    0.051660   -0.008840    0.447274 Biso 1.000000  H     
 H21    1.0    0.056910    0.498590    0.055214 Biso 1.000000  H     
 H22    1.0    0.943090    0.498590    0.555214 Biso 1.000000  H     
 H23    1.0    0.556910   -0.001410    0.555214 Biso 1.000000  H     
 H24    1.0    0.443090   -0.001410    0.055214 Biso 1.000000  H     
 H25    1.0    0.238790    0.767345    0.143380 Biso 1.000000  H     
 H26    1.0    0.761210    0.767345    0.643380 Biso 1.000000  H     
 H27    1.0    0.738790    0.267345    0.643380 Biso 1.000000  H     
 H28    1.0    0.261210    0.267345    0.143380 Biso 1.000000  H     
 H29    1.0    0.065400    0.729781    0.224625 Biso 1.000000  H     
 H30    1.0    0.934600    0.729781    0.724625 Biso 1.000000  H     
 H31    1.0    0.565400    0.229781    0.724625 Biso 1.000000  H     
 H32    1.0    0.434600    0.229781    0.224625 Biso 1.000000  H     
 H33    1.0    0.229330    0.575528    0.164586 Biso 1.000000  H     
 H34    1.0    0.770670    0.575528    0.664586 Biso 1.000000  H     
 H35    1.0    0.729330    0.075528    0.664586 Biso 1.000000  H     
 H36    1.0    0.270670    0.075528    0.164586 Biso 1.000000  H     
 H37    1.0    0.388700    0.642671    0.271958 Biso 1.000000  H     
 H38    1.0    0.611300    0.642671    0.771958 Biso 1.000000  H     
 H39    1.0    0.888700    0.142671    0.771958 Biso 1.000000  H     
 H40    1.0    0.111300    0.142671    0.271958 Biso 1.000000  H     
 H41    1.0    0.211140    0.609823    0.368015 Biso 1.000000  H     
 H42    1.0    0.788860    0.609823    0.868015 Biso 1.000000  H     
 H43    1.0    0.711140    0.109823    0.868015 Biso 1.000000  H     
 H44    1.0    0.288860    0.109823    0.368015 Biso 1.000000  H     
 N1     1.0    0.189250    0.740343    0.241181 Biso 1.000000  N     
 N2     1.0    0.810750    0.740343    0.741181 Biso 1.000000  N     
 N3     1.0    0.689250    0.240343    0.741181 Biso 1.000000  N     
 N4     1.0    0.310750    0.240343    0.241181 Biso 1.000000  N     
