# CIF file created by FINDSYM, version 7.1.3

data_findsym-output
_audit_creation_method FINDSYM

_cell_length_a    12.5436010000
_cell_length_b    12.5436010000
_cell_length_c    8.3370770000
_cell_angle_alpha 90.0000000000
_cell_angle_beta  90.0000000000
_cell_angle_gamma 120.0000000000
_cell_volume      1136.0276618776

_symmetry_space_group_name_H-M "P 3"
_symmetry_Int_Tables_number 143
_space_group.reference_setting '143:P 3'
_space_group.transform_Pp_abc a,b,c;0,0,0

loop_
_space_group_symop_id
_space_group_symop_operation_xyz
1 x,y,z
2 -y,x-y,z
3 -x+y,-x,z

loop_
_atom_site_label
_atom_site_type_symbol
_atom_site_symmetry_multiplicity
_atom_site_Wyckoff_label
_atom_site_fract_x
_atom_site_fract_y
_atom_site_fract_z
_atom_site_occupancy
_atom_site_fract_symmform
Co1 Co   3 d 0.33376  0.33033  0.58700  1.00000 Dx,Dy,Dz 
Co2 Co   3 d 0.66343  0.66802  0.08807  1.00000 Dx,Dy,Dz 
O1  O    3 d 0.42294  0.25875  0.44593  1.00000 Dx,Dy,Dz 
O2  O    3 d 0.57541  0.73666  -0.05847 1.00000 Dx,Dy,Dz 
O3  O    3 d 0.42807  0.15174  0.23395  1.00000 Dx,Dy,Dz 
O4  O    3 d 0.57292  0.84480  0.72929  1.00000 Dx,Dy,Dz 
O5  O    3 d 0.39937  0.48964  0.44277  1.00000 Dx,Dy,Dz 
O6  O    3 d 0.59481  0.50659  -0.05589 1.00000 Dx,Dy,Dz 
O7  O    3 d 0.50362  0.60133  0.22871  1.00000 Dx,Dy,Dz 
O8  O    3 d 0.49470  0.39575  0.72738  1.00000 Dx,Dy,Dz 
O9  O    3 d 0.17257  0.23454  0.44839  1.00000 Dx,Dy,Dz 
O10 O    3 d 0.82404  0.76183  -0.05258 1.00000 Dx,Dy,Dz 
O11 O    3 d 0.07134  0.24345  0.23200  1.00000 Dx,Dy,Dz 
O12 O    3 d -0.07128 0.75738  0.73208  1.00000 Dx,Dy,Dz 
C1  C    3 d 0.37079  0.18270  0.33134  1.00000 Dx,Dy,Dz 
C2  C    3 d 0.62930  0.81519  0.82959  1.00000 Dx,Dy,Dz 
C3  C    3 d 0.47147  0.51161  0.32352  1.00000 Dx,Dy,Dz 
C4  C    3 d 0.52566  0.48556  0.82198  1.00000 Dx,Dy,Dz 
C5  C    3 d 0.13957  0.29221  0.35462  1.00000 Dx,Dy,Dz 
C6  C    3 d 0.85308  0.70485  0.84725  1.00000 Dx,Dy,Dz 
H1  H    3 d 0.27052  0.14299  0.31779  1.00000 Dx,Dy,Dz 
H2  H    3 d 0.73025  0.85829  0.82159  1.00000 Dx,Dy,Dz 
H3  H    3 d 0.50786  0.44880  0.30381  1.00000 Dx,Dy,Dz 
H4  H    3 d 0.49036  0.54898  0.79951  1.00000 Dx,Dy,Dz 
H5  H    3 d 0.17153  0.39024  0.37798  1.00000 Dx,Dy,Dz 
H6  H    3 d 0.81186  0.60419  0.85793  1.00000 Dx,Dy,Dz 
H7  H    3 d 0.57695  0.30537  0.49895  1.00000 Dx,Dy,Dz 
H8  H    3 d 0.42246  0.69247  -0.00426 1.00000 Dx,Dy,Dz 
H9  H    1 c 0.66667  0.33333  0.66055  1.00000 0,0,Dz   
H10 H    1 b 0.33333  0.66667  0.15772  1.00000 0,0,Dz   
H11 H    3 d 0.35775  0.60211  0.49652  1.00000 Dx,Dy,Dz 
H12 H    3 d 0.63914  0.39552  -0.00089 1.00000 Dx,Dy,Dz 
H13 H    1 b 0.33333  0.66667  0.65835  1.00000 0,0,Dz   
H14 H    1 c 0.66667  0.33333  0.16100  1.00000 0,0,Dz   
H15 H    3 d 0.02802  0.08975  0.17493  1.00000 Dx,Dy,Dz 
H16 H    3 d -0.02675 -0.08948 0.67796  1.00000 Dx,Dy,Dz 
H17 H    1 a 0.00000  0.00000  0.01316  1.00000 0,0,Dz   
H18 H    1 a 0.00000  0.00000  0.51615  1.00000 0,0,Dz   
N1  N    1 c 0.66667  0.33333  0.53799  1.00000 0,0,Dz   
N2  N    1 b 0.33333  0.66667  0.03514  1.00000 0,0,Dz   
N3  N    1 b 0.33333  0.66667  0.53572  1.00000 0,0,Dz   
N4  N    1 c 0.66667  0.33333  0.03835  1.00000 0,0,Dz   
N5  N    1 a 0.00000  0.00000  0.13573  1.00000 0,0,Dz   
N6  N    1 a 0.00000  0.00000  0.63873  1.00000 0,0,Dz   