# CIF file created by FINDSYM, version 7.1.3

data_findsym-output
_audit_creation_method FINDSYM

_cell_length_a    12.5613650000
_cell_length_b    12.5613650000
_cell_length_c    8.3097800000
_cell_angle_alpha 90.0000000000
_cell_angle_beta  90.0000000000
_cell_angle_gamma 120.0000000000
_cell_volume      1135.5174908949

_symmetry_space_group_name_H-M "P 63"
_symmetry_Int_Tables_number 173
_space_group.reference_setting '173:P 6c'
_space_group.transform_Pp_abc a,b,c;0,0,0

loop_
_space_group_symop_id
_space_group_symop_operation_xyz
1 x,y,z
2 x-y,x,z+1/2
3 -y,x-y,z
4 -x,-y,z+1/2
5 -x+y,-x,z
6 y,-x+y,z+1/2

loop_
_atom_site_label
_atom_site_type_symbol
_atom_site_symmetry_multiplicity
_atom_site_Wyckoff_label
_atom_site_fract_x
_atom_site_fract_y
_atom_site_fract_z
_atom_site_occupancy
_atom_site_fract_symmform
Co1 Co   6 c 0.33508 0.33151 0.58703 1.00000 Dx,Dy,Dz 
O1  O    6 c 0.42411 0.26103 0.44426 1.00000 Dx,Dy,Dz 
O2  O    6 c 0.42718 0.15448 0.22990 1.00000 Dx,Dy,Dz 
O3  O    6 c 0.40250 0.49184 0.44335 1.00000 Dx,Dy,Dz 
O4  O    6 c 0.50481 0.60310 0.22773 1.00000 Dx,Dy,Dz 
O5  O    6 c 0.17453 0.23684 0.44790 1.00000 Dx,Dy,Dz 
O6  O    6 c 0.07238 0.24366 0.23077 1.00000 Dx,Dy,Dz 
C1  C    6 c 0.37059 0.18313 0.33150 1.00000 Dx,Dy,Dz 
C2  C    6 c 0.47390 0.51375 0.32319 1.00000 Dx,Dy,Dz 
C3  C    6 c 0.14423 0.29444 0.35002 1.00000 Dx,Dy,Dz 
H1  H    6 c 0.26969 0.13961 0.32363 1.00000 Dx,Dy,Dz 
H2  H    6 c 0.51082 0.45149 0.30316 1.00000 Dx,Dy,Dz 
H3  H    6 c 0.18136 0.39397 0.36683 1.00000 Dx,Dy,Dz 
H4  H    6 c 0.57740 0.30669 0.49791 1.00000 Dx,Dy,Dz 
H5  H    2 b 0.33333 0.66667 0.16018 1.00000 0,0,Dz   
H6  H    6 c 0.35906 0.60322 0.49752 1.00000 Dx,Dy,Dz 
H7  H    2 b 0.33333 0.66667 0.65983 1.00000 0,0,Dz   
H8  H    6 c 0.02757 0.08955 0.17515 1.00000 Dx,Dy,Dz 
H9  H    2 a 0.00000 0.00000 0.01292 1.00000 0,0,Dz   
N1  N    2 b 0.33333 0.66667 0.03723 1.00000 0,0,Dz   
N2  N    2 b 0.33333 0.66667 0.53680 1.00000 0,0,Dz   
N3  N    2 a 0.00000 0.00000 0.13591 1.00000 0,0,Dz   