# CIF file created by FINDSYM, version 7.1.3

data_findsym-output
_audit_creation_method FINDSYM

_cell_length_a    8.3953800000
_cell_length_b    11.8014820000
_cell_length_c    8.9929870000
_cell_angle_alpha 90.0000000000
_cell_angle_beta  90.0000000000
_cell_angle_gamma 90.0000000000
_cell_volume      891.0065000837

_symmetry_space_group_name_H-M "P 2/n 21/n 2/a"
_symmetry_Int_Tables_number 52
_space_group.reference_setting '052:-P 2a 2bc'
_space_group.transform_Pp_abc a,b,c;0,0,0

loop_
_space_group_symop_id
_space_group_symop_operation_xyz
1 x,y,z
2 x,-y+1/2,-z+1/2
3 -x+1/2,y+1/2,-z+1/2
4 -x+1/2,-y,z
5 -x,-y,-z
6 -x,y+1/2,z+1/2
7 x+1/2,-y+1/2,z+1/2
8 x+1/2,y,-z

loop_
_atom_site_label
_atom_site_type_symbol
_atom_site_symmetry_multiplicity
_atom_site_Wyckoff_label
_atom_site_fract_x
_atom_site_fract_y
_atom_site_fract_z
_atom_site_occupancy
_atom_site_fract_symmform
Fe1 Fe   4 d 0.23901  0.25000  0.25000  1.00000 Dx,0,0   
C1  C    4 c 0.25000  0.00000  0.18620  1.00000 0,0,Dz   
C2  C    8 e 0.03381  0.71737  -0.01771 1.00000 Dx,Dy,Dz 
C3  C    4 c 0.25000  0.00000  0.73455  1.00000 0,0,Dz   
H1  H    4 c 0.25000  0.00000  0.30865  1.00000 0,0,Dz   
H2  H    8 e 0.82894  -0.08143 0.07820  1.00000 Dx,Dy,Dz 
H3  H    8 e -0.07795 0.87827  0.24960  1.00000 Dx,Dy,Dz 
H4  H    8 e 0.11250  0.77893  -0.07475 1.00000 Dx,Dy,Dz 
H5  H    8 e 0.68759  0.06062  0.47135  1.00000 Dx,Dy,Dz 
N1  N    8 e 0.84171  -0.07372 0.19133  1.00000 Dx,Dy,Dz 
N2  N    4 c 0.25000  0.00000  0.58598  1.00000 0,0,Dz   
O1  O    8 e 0.76564  -0.09468 0.87922  1.00000 Dx,Dy,Dz 
O2  O    8 e -0.08411 0.67763  -0.08885 1.00000 Dx,Dy,Dz 
O3  O    8 e 0.06669  0.69067  0.11555  1.00000 Dx,Dy,Dz 