# CIF file created by FINDSYM, version 7.1.3

data_findsym-output
_audit_creation_method FINDSYM

_cell_length_a    8.1528050000
_cell_length_b    11.6193600000
_cell_length_c    8.2426690000
_cell_angle_alpha 90.0000000000
_cell_angle_beta  90.0000000000
_cell_angle_gamma 90.0000000000
_cell_volume      780.8311361259

_symmetry_space_group_name_H-M "P 21/n 21/m 21/a"
_symmetry_Int_Tables_number 62
_space_group.reference_setting '062:-P 2ac 2n'
_space_group.transform_Pp_abc a,b,c;0,0,0

loop_
_space_group_symop_id
_space_group_symop_operation_xyz
1 x,y,z
2 x+1/2,-y+1/2,-z+1/2
3 -x,y+1/2,-z
4 -x+1/2,-y,z+1/2
5 -x,-y,-z
6 -x+1/2,y+1/2,z+1/2
7 x,-y+1/2,z
8 x+1/2,y,-z+1/2

loop_
_atom_site_label
_atom_site_type_symbol
_atom_site_symmetry_multiplicity
_atom_site_Wyckoff_label
_atom_site_fract_x
_atom_site_fract_y
_atom_site_fract_z
_atom_site_occupancy
_atom_site_fract_symmform
Ni1 Ni   4 b 0.00000  0.00000 0.50000 1.00000 0,0,0    
C1  C    4 c -0.01016 0.25000 0.44613 1.00000 Dx,0,Dz  
C2  C    8 d 0.21871  0.52958 0.22136 1.00000 Dx,Dy,Dz 
C3  C    4 c 0.58623  0.25000 0.52525 1.00000 Dx,0,Dz  
H1  H    4 c 0.01598  0.25000 0.57749 1.00000 Dx,0,Dz  
H2  H    8 d 0.35219  0.82706 0.52044 1.00000 Dx,Dy,Dz 
H3  H    8 d 0.64992  0.82325 0.48906 1.00000 Dx,Dy,Dz 
H4  H    4 c 0.58789  0.25000 0.65765 1.00000 Dx,0,Dz  
H5  H    8 d 0.29094  0.46392 0.28613 1.00000 Dx,Dy,Dz 
H6  H    4 c 0.41128  0.25000 0.34347 1.00000 Dx,0,Dz  
N1  N    4 c 0.41323  0.25000 0.46902 1.00000 Dx,0,Dz  
O1  O    8 d 0.09313  0.57204 0.28826 1.00000 Dx,Dy,Dz 
O2  O    8 d 0.76799  0.55930 0.41999 1.00000 Dx,Dy,Dz 
O3  O    8 d -0.02550 0.34579 0.37319 1.00000 Dx,Dy,Dz 