# CIF file created by FINDSYM, version 7.1.3

data_findsym-output
_audit_creation_method FINDSYM

_cell_length_a    12.5583100000
_cell_length_b    12.5583100000
_cell_length_c    8.3816000000
_cell_angle_alpha 90.0000000000
_cell_angle_beta  90.0000000000
_cell_angle_gamma 120.0000000000
_cell_volume      1144.7745379643

_symmetry_space_group_name_H-M "P 63"
_symmetry_Int_Tables_number 173
_space_group.reference_setting '173:P 6c'
_space_group.transform_Pp_abc a,b,c;0,0,0

loop_
_space_group_symop_id
_space_group_symop_operation_xyz
1 x,y,z
2 x-y,x,z+1/2
3 -y,x-y,z
4 -x,-y,z+1/2
5 -x+y,-x,z
6 y,-x+y,z+1/2

loop_
_atom_site_label
_atom_site_type_symbol
_atom_site_symmetry_multiplicity
_atom_site_Wyckoff_label
_atom_site_fract_x
_atom_site_fract_y
_atom_site_fract_z
_atom_site_occupancy
_atom_site_fract_symmform
Zn1 Zn   6 c 0.33553 0.33112 0.58693 1.00000 Dx,Dy,Dz 
O1  O    6 c 0.42597 0.26196 0.44276 1.00000 Dx,Dy,Dz 
O2  O    6 c 0.43066 0.15477 0.23213 1.00000 Dx,Dy,Dz 
O3  O    6 c 0.40025 0.49216 0.44126 1.00000 Dx,Dy,Dz 
O4  O    6 c 0.50338 0.60505 0.22903 1.00000 Dx,Dy,Dz 
O5  O    6 c 0.17293 0.23358 0.44754 1.00000 Dx,Dy,Dz 
O6  O    6 c 0.07025 0.24139 0.23364 1.00000 Dx,Dy,Dz 
C1  C    6 c 0.37365 0.18544 0.32923 1.00000 Dx,Dy,Dz 
C2  C    6 c 0.47081 0.51417 0.32121 1.00000 Dx,Dy,Dz 
C3  C    6 c 0.14119 0.29122 0.35290 1.00000 Dx,Dy,Dz 
H1  H    6 c 0.27328 0.14502 0.31696 1.00000 Dx,Dy,Dz 
H2  H    6 c 0.50540 0.45027 0.29845 1.00000 Dx,Dy,Dz 
H3  H    6 c 0.17621 0.39019 0.37234 1.00000 Dx,Dy,Dz 
H4  H    6 c 0.57740 0.30624 0.49867 1.00000 Dx,Dy,Dz 
H5  H    2 b 0.33333 0.66667 0.15995 1.00000 0,0,Dz   
H6  H    6 c 0.35879 0.60312 0.49839 1.00000 Dx,Dy,Dz 
H7  H    2 b 0.33333 0.66667 0.65979 1.00000 0,0,Dz   
H8  H    6 c 0.02730 0.08940 0.17600 1.00000 Dx,Dy,Dz 
H9  H    2 a 0.00000 0.00000 0.01475 1.00000 0,0,Dz   
N1  N    2 b 0.33333 0.66667 0.03806 1.00000 0,0,Dz   
N2  N    2 b 0.33333 0.66667 0.53784 1.00000 0,0,Dz   
N3  N    2 a 0.00000 0.00000 0.13666 1.00000 0,0,Dz   