# CIF file created by FINDSYM, version 7.1.3

data_findsym-output
_audit_creation_method FINDSYM

_cell_length_a    8.8650490000
_cell_length_b    7.6343910000
_cell_length_c    11.4457440000
_cell_angle_alpha 90.0000000000
_cell_angle_beta  90.0000000000
_cell_angle_gamma 90.0000000000
_cell_volume      774.6393730475

_symmetry_space_group_name_H-M "P n a 21"
_symmetry_Int_Tables_number 33
_space_group.reference_setting '033:P 2c -2n'
_space_group.transform_Pp_abc a,b,c;0,0,0

loop_
_space_group_symop_id
_space_group_symop_operation_xyz
1 x,y,z
2 -x,-y,z+1/2
3 -x+1/2,y+1/2,z+1/2
4 x+1/2,-y+1/2,z

loop_
_atom_site_label
_atom_site_type_symbol
_atom_site_symmetry_multiplicity
_atom_site_Wyckoff_label
_atom_site_fract_x
_atom_site_fract_y
_atom_site_fract_z
_atom_site_occupancy
_atom_site_fract_symmform
Mg1 Mg   4 a 0.04558  -0.00031 0.51223 1.00000 Dx,Dy,Dz 
O1  O    4 a 0.07108  0.14394  0.66901 1.00000 Dx,Dy,Dz 
O2  O    4 a 0.00132  0.13510  0.85766 1.00000 Dx,Dy,Dz 
O3  O    4 a -0.05494 0.22628  0.44550 1.00000 Dx,Dy,Dz 
O4  O    4 a 0.74951  0.41315  0.44004 1.00000 Dx,Dy,Dz 
O5  O    4 a 0.83878  -0.08197 0.58118 1.00000 Dx,Dy,Dz 
O6  O    4 a 0.64505  0.72926  0.57696 1.00000 Dx,Dy,Dz 
C1  C    4 a 0.04166  0.06214  0.76343 1.00000 Dx,Dy,Dz 
C2  C    4 a 0.82429  0.28909  0.48691 1.00000 Dx,Dy,Dz 
C3  C    4 a 0.78188  0.77114  0.55626 1.00000 Dx,Dy,Dz 
H1  H    4 a 0.05231  -0.08196 0.76220 1.00000 Dx,Dy,Dz 
H2  H    4 a 0.78046  0.23319  0.56913 1.00000 Dx,Dy,Dz 
H3  H    4 a 0.85375  0.67229  0.51287 1.00000 Dx,Dy,Dz 
H4  H    4 a 0.58821  -0.09101 0.67280 1.00000 Dx,Dy,Dz 
H5  H    4 a 0.58357  0.12987  0.70248 1.00000 Dx,Dy,Dz 
H6  H    4 a 0.65575  -0.01693 0.80255 1.00000 Dx,Dy,Dz 
H7  H    4 a 0.42877  0.89059  0.84648 1.00000 Dx,Dy,Dz 
H8  H    4 a 0.40859  0.10514  0.83217 1.00000 Dx,Dy,Dz 
N1  N    4 a 0.42181  -0.00966 0.78609 1.00000 Dx,Dy,Dz 
N2  N    4 a 0.57303  0.00332  0.73823 1.00000 Dx,Dy,Dz 