# CIF file created by FINDSYM, version 7.1.3

data_findsym-output
_audit_creation_method FINDSYM

_cell_length_a    7.9351430000
_cell_length_b    13.7930390000
_cell_length_c    7.3938030000
_cell_angle_alpha 90.0000000000
_cell_angle_beta  90.0000000000
_cell_angle_gamma 90.0000000000
_cell_volume      809.2497928155

_symmetry_space_group_name_H-M "P 21 21 21"
_symmetry_Int_Tables_number 19
_space_group.reference_setting '019:P 2ac 2ab'
_space_group.transform_Pp_abc a,b,c;0,0,0

loop_
_space_group_symop_id
_space_group_symop_operation_xyz
1 x,y,z
2 x+1/2,-y+1/2,-z
3 -x,y+1/2,-z+1/2
4 -x+1/2,-y,z+1/2

loop_
_atom_site_label
_atom_site_type_symbol
_atom_site_symmetry_multiplicity
_atom_site_Wyckoff_label
_atom_site_fract_x
_atom_site_fract_y
_atom_site_fract_z
_atom_site_occupancy
_atom_site_fract_symmform
Mg1 Mg   4 a 0.71510  0.66403  0.76146  1.00000 Dx,Dy,Dz 
O1  O    4 a 0.59470  0.76802  0.61194  1.00000 Dx,Dy,Dz 
O2  O    4 a 0.41904  0.83300  0.40896  1.00000 Dx,Dy,Dz 
O3  O    4 a 0.80106  0.78805  -0.09695 1.00000 Dx,Dy,Dz 
O4  O    4 a 0.00293  0.85737  0.07359  1.00000 Dx,Dy,Dz 
O5  O    4 a 0.61198  0.54491  0.62358  1.00000 Dx,Dy,Dz 
O6  O    4 a 0.63302  0.42646  0.41731  1.00000 Dx,Dy,Dz 
C1  C    4 a 0.47730  0.76203  0.49698  1.00000 Dx,Dy,Dz 
C2  C    4 a -0.06239 0.78552  -0.00605 1.00000 Dx,Dy,Dz 
C3  C    4 a 0.69278  0.49751  0.50359  1.00000 Dx,Dy,Dz 
H1  H    4 a 0.42172  0.68924  0.47121  1.00000 Dx,Dy,Dz 
H2  H    4 a 0.00186  0.71448  0.00282  1.00000 Dx,Dy,Dz 
H3  H    4 a 0.82333  0.52126  0.47511  1.00000 Dx,Dy,Dz 
H4  H    4 a 0.56207  -0.01974 0.78831  1.00000 Dx,Dy,Dz 
H5  H    4 a 0.72248  0.89681  0.80320  1.00000 Dx,Dy,Dz 
H6  H    4 a 0.69484  -0.03683 0.60727  1.00000 Dx,Dy,Dz 
H7  H    4 a -0.09204 0.03605  0.78468  1.00000 Dx,Dy,Dz 
H8  H    4 a 0.73882  0.10370  0.78974  1.00000 Dx,Dy,Dz 
N1  N    4 a 0.68682  -0.03558 0.74928  1.00000 Dx,Dy,Dz 
N2  N    4 a 0.78739  0.03922  0.83497  1.00000 Dx,Dy,Dz 