# CIF file created by FINDSYM, version 7.1.3

data_findsym-output
_audit_creation_method FINDSYM

_cell_length_a    7.9974040000
_cell_length_b    13.9014140000
_cell_length_c    7.2750370000
_cell_angle_alpha 90.0000000000
_cell_angle_beta  90.0000000000
_cell_angle_gamma 90.0000000000
_cell_volume      808.8038675686

_symmetry_space_group_name_H-M "P 21 21 21"
_symmetry_Int_Tables_number 19
_space_group.reference_setting '019:P 2ac 2ab'
_space_group.transform_Pp_abc a,b,c;0,0,0

loop_
_space_group_symop_id
_space_group_symop_operation_xyz
1 x,y,z
2 x+1/2,-y+1/2,-z
3 -x,y+1/2,-z+1/2
4 -x+1/2,-y,z+1/2

loop_
_atom_site_label
_atom_site_type_symbol
_atom_site_symmetry_multiplicity
_atom_site_Wyckoff_label
_atom_site_fract_x
_atom_site_fract_y
_atom_site_fract_z
_atom_site_occupancy
_atom_site_fract_symmform
Co1 Co   4 a 0.71500  0.83605  0.25981  1.00000 Dx,Dy,Dz 
O1  O    4 a 0.59952  0.72912  0.10994  1.00000 Dx,Dy,Dz 
O2  O    4 a 0.41888  0.66354  -0.08580 1.00000 Dx,Dy,Dz 
O3  O    4 a 0.80188  0.71050  0.40213  1.00000 Dx,Dy,Dz 
O4  O    4 a 0.00115  0.64238  0.57557  1.00000 Dx,Dy,Dz 
O5  O    4 a 0.60763  -0.04396 0.12313  1.00000 Dx,Dy,Dz 
O6  O    4 a 0.63000  0.07366  -0.08445 1.00000 Dx,Dy,Dz 
C1  C    4 a 0.47663  0.73515  0.00092  1.00000 Dx,Dy,Dz 
C2  C    4 a -0.06145 0.71379  0.49217  1.00000 Dx,Dy,Dz 
C3  C    4 a 0.69223  0.00571  0.00891  1.00000 Dx,Dy,Dz 
H1  H    4 a 0.41701  0.80645  -0.02008 1.00000 Dx,Dy,Dz 
H2  H    4 a 0.00466  0.78356  0.49726  1.00000 Dx,Dy,Dz 
H3  H    4 a 0.82591  -0.01221 -0.00820 1.00000 Dx,Dy,Dz 
H4  H    4 a 0.56452  0.51960  0.28397  1.00000 Dx,Dy,Dz 
H5  H    4 a 0.69406  0.53733  0.09831  1.00000 Dx,Dy,Dz 
H6  H    4 a 0.72325  0.60229  0.29818  1.00000 Dx,Dy,Dz 
H7  H    4 a -0.09316 0.46322  0.27250  1.00000 Dx,Dy,Dz 
H8  H    4 a 0.73771  0.39714  0.28228  1.00000 Dx,Dy,Dz 
N1  N    4 a 0.68768  0.53546  0.24300  1.00000 Dx,Dy,Dz 
N2  N    4 a 0.78835  0.46072  0.32720  1.00000 Dx,Dy,Dz 