# CIF file created by FINDSYM, version 7.1.3

data_findsym-output
_audit_creation_method FINDSYM

_cell_length_a    7.6665900000
_cell_length_b    7.8922300000
_cell_length_c    12.7296900000
_cell_angle_alpha 90.0000000000
_cell_angle_beta  90.0000000000
_cell_angle_gamma 90.0000000000
_cell_volume      770.2288810009

_symmetry_space_group_name_H-M "P 21 21 21"
_symmetry_Int_Tables_number 19
_space_group.reference_setting '019:P 2ac 2ab'
_space_group.transform_Pp_abc a,b,c;0,0,0

loop_
_space_group_symop_id
_space_group_symop_operation_xyz
1 x,y,z
2 x+1/2,-y+1/2,-z
3 -x,y+1/2,-z+1/2
4 -x+1/2,-y,z+1/2

loop_
_atom_site_label
_atom_site_type_symbol
_atom_site_symmetry_multiplicity
_atom_site_Wyckoff_label
_atom_site_fract_x
_atom_site_fract_y
_atom_site_fract_z
_atom_site_occupancy
_atom_site_fract_symmform
Mg1 Mg   4 a 0.56025  0.49319 0.08555  1.00000 Dx,Dy,Dz 
C1  C    4 a 0.42341  0.22166 0.23512  1.00000 Dx,Dy,Dz 
C2  C    4 a 0.32279  0.79060 0.02797  1.00000 Dx,Dy,Dz 
C3  C    4 a 0.30824  0.28426 -0.03800 1.00000 Dx,Dy,Dz 
H1  H    4 a 0.54900  0.16020 0.21655  1.00000 Dx,Dy,Dz 
H2  H    4 a 0.41726  0.82631 -0.03432 1.00000 Dx,Dy,Dz 
H3  H    4 a 0.21220  0.31443 0.02418  1.00000 Dx,Dy,Dz 
H4  H    4 a 0.20965  0.45628 0.21585  1.00000 Dx,Dy,Dz 
H5  H    4 a 0.08503  0.25339 0.27955  1.00000 Dx,Dy,Dz 
H6  H    4 a -0.09492 0.32483 0.21028  1.00000 Dx,Dy,Dz 
H7  H    4 a -0.06524 0.37726 0.34142  1.00000 Dx,Dy,Dz 
O1  O    4 a 0.39534  0.36543 0.19263  1.00000 Dx,Dy,Dz 
O2  O    4 a 0.31824  0.14696 0.29633  1.00000 Dx,Dy,Dz 
O3  O    4 a 0.35900  0.66783 0.08711  1.00000 Dx,Dy,Dz 
O4  O    4 a 0.18436  0.87929 0.03488  1.00000 Dx,Dy,Dz 
O5  O    4 a 0.45646  0.35213 -0.03550 1.00000 Dx,Dy,Dz 
O6  O    4 a 0.25932  0.17940 0.89119  1.00000 Dx,Dy,Dz 
O7  O    4 a 0.09005  0.50039 0.23676  1.00000 Dx,Dy,Dz 
N1  N    4 a -0.00232 0.35343 0.26951  1.00000 Dx,Dy,Dz 
