# CIF file created by FINDSYM, version 7.1.3

data_findsym-output
_audit_creation_method FINDSYM

_cell_length_a    14.1271440000
_cell_length_b    8.2425220000
_cell_length_c    8.6415610000
_cell_angle_alpha 90.0000000000
_cell_angle_beta  120.7080610000
_cell_angle_gamma 90.0000000000
_cell_volume      865.1556428565

_symmetry_space_group_name_H-M "C 1 c 1"
_symmetry_Int_Tables_number 9
_space_group.reference_setting '009:C -2yc'
_space_group.transform_Pp_abc a,b,c;0,0,0

loop_
_space_group_symop_id
_space_group_symop_operation_xyz
1 x,y,z
2 x,-y,z+1/2
3 x+1/2,y+1/2,z
4 x+1/2,-y+1/2,z+1/2

loop_
_atom_site_label
_atom_site_type_symbol
_atom_site_symmetry_multiplicity
_atom_site_Wyckoff_label
_atom_site_fract_x
_atom_site_fract_y
_atom_site_fract_z
_atom_site_occupancy
_atom_site_fract_symmform
Zn1 Zn   4 a 0.00044  0.25316 0.00043  1.00000 Dx,Dy,Dz 
O1  O    4 a 0.15623  0.14272 0.16256  1.00000 Dx,Dy,Dz 
O2  O    4 a 0.54805  0.02171 0.63173  1.00000 Dx,Dy,Dz 
O3  O    4 a 0.04681  0.33154 0.81588  1.00000 Dx,Dy,Dz 
O4  O    4 a 0.44208  0.46823 0.35437  1.00000 Dx,Dy,Dz 
O5  O    4 a -0.05327 0.16412 0.17909  1.00000 Dx,Dy,Dz 
O6  O    4 a 0.33921  0.13930 0.33749  1.00000 Dx,Dy,Dz 
C1  C    4 a 0.69399  0.27861 0.09398  1.00000 Dx,Dy,Dz 
C2  C    4 a 0.24778  0.21465 0.24977  1.00000 Dx,Dy,Dz 
C3  C    4 a 0.03431  0.47652 0.75927  1.00000 Dx,Dy,Dz 
C4  C    4 a -0.02325 0.02600 0.25693  1.00000 Dx,Dy,Dz 
C5  C    4 a 0.80414  0.23701 0.42310  1.00000 Dx,Dy,Dz 
H1  H    4 a 0.68577  0.14825 0.06632  1.00000 Dx,Dy,Dz 
H2  H    4 a 0.69311  0.34557 -0.01582 1.00000 Dx,Dy,Dz 
H3  H    4 a 0.62622  0.31921 0.11089  1.00000 Dx,Dy,Dz 
H4  H    4 a 0.25012  0.34899 0.25146  1.00000 Dx,Dy,Dz 
H5  H    4 a 0.51051  0.06881 0.82631  1.00000 Dx,Dy,Dz 
H6  H    4 a 0.53591  0.45498 0.23673  1.00000 Dx,Dy,Dz 
H7  H    4 a 0.86273  0.25810 0.24483  1.00000 Dx,Dy,Dz 
H8  H    4 a 0.81427  0.43452 0.28457  1.00000 Dx,Dy,Dz 
H9  H    4 a 0.88376  0.26498 0.54214  1.00000 Dx,Dy,Dz 
H10 H    4 a 0.79444  0.10543 0.40607  1.00000 Dx,Dy,Dz 
H11 H    4 a 0.73654  0.28784 0.43472  1.00000 Dx,Dy,Dz 
N1  N    4 a 0.80012  0.30856 0.26241  1.00000 Dx,Dy,Dz 