# CIF file created by FINDSYM, version 7.1.3

data_findsym-output
_audit_creation_method FINDSYM

_cell_length_a    8.2827000000
_cell_length_b    11.6735000000
_cell_length_c    8.1543000000
_cell_angle_alpha 90.0000000000
_cell_angle_beta  90.0000000000
_cell_angle_gamma 90.0000000000
_cell_volume      788.4237611908

_symmetry_space_group_name_H-M "P 21/n 21/m 21/a"
_symmetry_Int_Tables_number 62
_space_group.reference_setting '062:-P 2ac 2n'
_space_group.transform_Pp_abc a,b,c;0,0,0

loop_
_space_group_symop_id
_space_group_symop_operation_xyz
1 x,y,z
2 x+1/2,-y+1/2,-z+1/2
3 -x,y+1/2,-z
4 -x+1/2,-y,z+1/2
5 -x,-y,-z
6 -x+1/2,y+1/2,z+1/2
7 x,-y+1/2,z
8 x+1/2,y,-z+1/2

loop_
_atom_site_label
_atom_site_type_symbol
_atom_site_symmetry_multiplicity
_atom_site_Wyckoff_label
_atom_site_fract_x
_atom_site_fract_y
_atom_site_fract_z
_atom_site_occupancy
_atom_site_fract_symmform
C1  C    8 d 0.71995  0.47004 0.77955  1.00000 Dx,Dy,Dz 
C2  C    4 c 0.50975  0.25000 0.44358  1.00000 Dx,0,Dz  
C3  C    4 c -0.08538 0.25000 0.52413  1.00000 Dx,0,Dz  
Co1 Co   4 a 0.00000  0.00000 0.00000  1.00000 0,0,0    
N1  N    4 c 0.08534  0.25000 0.47013  1.00000 Dx,0,Dz  
O1  O    8 d 0.59638  0.42958 0.71424  1.00000 Dx,Dy,Dz 
O2  O    8 d 0.77307  0.44008 -0.08177 1.00000 Dx,Dy,Dz 
O3  O    8 d 0.47438  0.65526 0.62751  1.00000 Dx,Dy,Dz 
H1  H    8 d 0.78834  0.53569 0.71325  1.00000 Dx,Dy,Dz 
H2  H    4 c 0.48100  0.25000 0.57490  1.00000 Dx,0,Dz  
H3  H    8 d 0.85355  0.82201 0.48689  1.00000 Dx,Dy,Dz 
H4  H    4 c 0.08890  0.25000 0.34420  1.00000 Dx,0,Dz  
H5  H    8 d 0.14490  0.82522 0.52150  1.00000 Dx,Dy,Dz 
H6  H    4 c -0.08900 0.25000 0.65660  1.00000 Dx,0,Dz  