# CIF file created by FINDSYM, version 7.1.3

data_findsym-output
_audit_creation_method FINDSYM

_cell_length_a    7.5890700000
_cell_length_b    7.9756800000
_cell_length_c    12.8029700000
_cell_angle_alpha 90.0000000000
_cell_angle_beta  90.0000000000
_cell_angle_gamma 90.0000000000
_cell_volume      774.9380890069

_symmetry_space_group_name_H-M "P 21 21 21"
_symmetry_Int_Tables_number 19
_space_group.reference_setting '019:P 2ac 2ab'
_space_group.transform_Pp_abc a,b,c;0,0,0

loop_
_space_group_symop_id
_space_group_symop_operation_xyz
1 x,y,z
2 x+1/2,-y+1/2,-z
3 -x,y+1/2,-z+1/2
4 -x+1/2,-y,z+1/2

loop_
_atom_site_label
_atom_site_type_symbol
_atom_site_symmetry_multiplicity
_atom_site_Wyckoff_label
_atom_site_fract_x
_atom_site_fract_y
_atom_site_fract_z
_atom_site_occupancy
_atom_site_fract_symmform
Ni1 Ni   4 a 0.03001  -0.00973 0.58109 1.00000 Dx,Dy,Dz 
C1  C    4 a -0.04892 0.73394  0.74509 1.00000 Dx,Dy,Dz 
C2  C    4 a 0.76208  0.26467  0.52341 1.00000 Dx,Dy,Dz 
C3  C    4 a 0.80894  0.75562  0.46613 1.00000 Dx,Dy,Dz 
H1  H    4 a 0.08994  0.69893  0.73103 1.00000 Dx,Dy,Dz 
H2  H    4 a 0.85036  0.29236  0.45725 1.00000 Dx,Dy,Dz 
H3  H    4 a 0.71537  0.78200  0.52981 1.00000 Dx,Dy,Dz 
H4  H    4 a 0.65515  0.10108  0.66700 1.00000 Dx,Dy,Dz 
H5  H    4 a 0.63879  0.85968  0.74076 1.00000 Dx,Dy,Dz 
H6  H    4 a 0.42637  0.89108  0.69485 1.00000 Dx,Dy,Dz 
H7  H    4 a 0.47751  -0.07550 0.82417 1.00000 Dx,Dy,Dz 
O1  O    4 a 0.88607  0.85441  0.69201 1.00000 Dx,Dy,Dz 
O2  O    4 a 0.86206  0.65457  0.81240 1.00000 Dx,Dy,Dz 
O3  O    4 a 0.79444  0.13444  0.57825 1.00000 Dx,Dy,Dz 
O4  O    4 a 0.63326  0.36154  0.54159 1.00000 Dx,Dy,Dz 
O5  O    4 a -0.04729 0.83515  0.46152 1.00000 Dx,Dy,Dz 
O6  O    4 a 0.76566  0.64309  0.39970 1.00000 Dx,Dy,Dz 
O7  O    4 a 0.56729  0.10137  0.72754 1.00000 Dx,Dy,Dz 
N1  N    4 a 0.52467  -0.06808 0.74777 1.00000 Dx,Dy,Dz 