# CIF file created by FINDSYM, version 7.1.3

data_findsym-output
_audit_creation_method FINDSYM

_cell_length_a    14.1030670000
_cell_length_b    8.2442670000
_cell_length_c    8.6237540000
_cell_angle_alpha 90.0000000000
_cell_angle_beta  121.0034710000
_cell_angle_gamma 90.0000000000
_cell_volume      859.4324798481

_symmetry_space_group_name_H-M "C 1 c 1"
_symmetry_Int_Tables_number 9
_space_group.reference_setting '009:C -2yc'
_space_group.transform_Pp_abc a,b,c;0,0,0

loop_
_space_group_symop_id
_space_group_symop_operation_xyz
1 x,y,z
2 x,-y,z+1/2
3 x+1/2,y+1/2,z
4 x+1/2,-y+1/2,z+1/2

loop_
_atom_site_label
_atom_site_type_symbol
_atom_site_symmetry_multiplicity
_atom_site_Wyckoff_label
_atom_site_fract_x
_atom_site_fract_y
_atom_site_fract_z
_atom_site_occupancy
_atom_site_fract_symmform
Co1 Co   4 a -0.00012 0.25274 0.00102  1.00000 Dx,Dy,Dz 
O1  O    4 a 0.15617  0.14280 0.16146  1.00000 Dx,Dy,Dz 
O2  O    4 a 0.54937  0.02382 0.63621  1.00000 Dx,Dy,Dz 
O3  O    4 a 0.04837  0.33287 0.82066  1.00000 Dx,Dy,Dz 
O4  O    4 a 0.44265  0.46769 0.35379  1.00000 Dx,Dy,Dz 
O5  O    4 a -0.05343 0.16311 0.17703  1.00000 Dx,Dy,Dz 
O6  O    4 a 0.34012  0.13905 0.33867  1.00000 Dx,Dy,Dz 
C1  C    4 a 0.69305  0.27812 0.09243  1.00000 Dx,Dy,Dz 
C2  C    4 a 0.24819  0.21447 0.24993  1.00000 Dx,Dy,Dz 
C3  C    4 a 0.03400  0.47733 0.76172  1.00000 Dx,Dy,Dz 
C4  C    4 a -0.02289 0.02526 0.25604  1.00000 Dx,Dy,Dz 
C5  C    4 a 0.80473  0.23635 0.42313  1.00000 Dx,Dy,Dz 
H1  H    4 a 0.68463  0.14780 0.06463  1.00000 Dx,Dy,Dz 
H2  H    4 a 0.69174  0.34505 -0.01797 1.00000 Dx,Dy,Dz 
H3  H    4 a 0.62531  0.31887 0.10957  1.00000 Dx,Dy,Dz 
H4  H    4 a 0.25058  0.34878 0.25196  1.00000 Dx,Dy,Dz 
H5  H    4 a 0.50703  0.06829 0.82566  1.00000 Dx,Dy,Dz 
H6  H    4 a 0.53663  0.45436 0.23644  1.00000 Dx,Dy,Dz 
H7  H    4 a 0.86257  0.25745 0.24370  1.00000 Dx,Dy,Dz 
H8  H    4 a 0.81436  0.43382 0.28398  1.00000 Dx,Dy,Dz 
H9  H    4 a 0.88492  0.26444 0.54275  1.00000 Dx,Dy,Dz 
H10 H    4 a 0.79496  0.10481 0.40597  1.00000 Dx,Dy,Dz 
H11 H    4 a 0.73701  0.28697 0.43482  1.00000 Dx,Dy,Dz 
N1  N    4 a 0.80004  0.30796 0.26159  1.00000 Dx,Dy,Dz 