_cell_length_a                         8.244267
_cell_length_b                         12.164444
_cell_length_c                         8.623752
_cell_angle_alpha                      96.416313
_cell_angle_beta                       90.000000
_cell_angle_gamma                      90.000000
_space_group_IT_number                 1
 loop_
 _space_group_symop_operation_xyz 
 'x, y, z' 
 loop_ 
 _atom_site_label 
 _atom_site_occupancy 
 _atom_site_fract_x 
 _atom_site_fract_y
 _atom_site_fract_z
 _atom_site_adp_type
 _atom_site_U_iso_or_equiv
 _atom_site_type_symbol
 Co1    1.0    0.251096    1.000048    0.757456 Biso 1.000000  Co    
 Co2    1.0    0.748904    1.000048    0.257456 Biso 1.000000  Co    
 Co3    1.0    0.751096    0.500048    0.257456 Biso 1.000000  Co    
 Co4    1.0    0.248904    0.500048    0.757456 Biso 1.000000  Co    
 O1     1.0    0.359825    0.158767    0.754398 Biso 1.000000  O     
 O2     1.0    0.640175    0.158767    0.254398 Biso 1.000000  O     
 O3     1.0    0.859825    0.658767    0.254398 Biso 1.000000  O     
 O4     1.0    0.140175    0.658767    0.754398 Biso 1.000000  O     
 O5     1.0    0.470237    0.554956    0.668746 Biso 1.000000  O     
 O6     1.0    0.529763    0.554956    0.168746 Biso 1.000000  O     
 O7     1.0    0.970237    0.054956    0.168746 Biso 1.000000  O     
 O8     1.0    0.029763    0.054956    0.668746 Biso 1.000000  O     
 O9     1.0    0.164316    0.051912    0.986635 Biso 1.000000  O     
 O10    1.0    0.835684    0.051912    0.486635 Biso 1.000000  O     
 O11    1.0    0.664316    0.551912    0.486635 Biso 1.000000  O     
 O12    1.0    0.335684    0.551912    0.986635 Biso 1.000000  O     
 O13    1.0    0.026367    0.448236    0.844446 Biso 1.000000  O     
 O14    1.0    0.973633    0.448236    0.344446 Biso 1.000000  O     
 O15    1.0    0.526367    0.948236    0.344446 Biso 1.000000  O     
 O16    1.0    0.473633    0.948236    0.844446 Biso 1.000000  O     
 O17    1.0    0.334076    0.950112    0.528465 Biso 1.000000  O     
 O18    1.0    0.665924    0.950112    0.028465 Biso 1.000000  O     
 O19    1.0    0.834076    0.450112    0.028465 Biso 1.000000  O     
 O20    1.0    0.165924    0.450112    0.528465 Biso 1.000000  O     
 O21    1.0    0.358325    0.342717    0.761138 Biso 1.000000  O     
 O22    1.0    0.641675    0.342717    0.261138 Biso 1.000000  O     
 O23    1.0    0.858325    0.842717    0.261138 Biso 1.000000  O     
 O24    1.0    0.141675    0.842717    0.761138 Biso 1.000000  O     
 C1     1.0    0.221880    0.838759    0.332273 Biso 1.000000  C     
 C2     1.0    0.778120    0.746582    0.577510 Biso 1.000000  C     
 C3     1.0    0.721880    0.338759    0.832273 Biso 1.000000  C     
 C4     1.0    0.278120    0.246582    0.077510 Biso 1.000000  C     
 C5     1.0    0.285530    0.250724    0.757696 Biso 1.000000  C     
 C6     1.0    0.714470    0.250724    0.257696 Biso 1.000000  C     
 C7     1.0    0.785530    0.750724    0.257696 Biso 1.000000  C     
 C8     1.0    0.214470    0.750724    0.757696 Biso 1.000000  C     
 C9     1.0    0.024483    0.026223    0.033935 Biso 1.000000  C     
 C10    1.0    0.975517    0.026223    0.533935 Biso 1.000000  C     
 C11    1.0    0.524483    0.526223    0.533935 Biso 1.000000  C     
 C12    1.0    0.475517    0.526223    0.033935 Biso 1.000000  C     
 C13    1.0    0.476553    0.969333    0.482725 Biso 1.000000  C     
 C14    1.0    0.523447    0.969333    0.982725 Biso 1.000000  C     
 C15    1.0    0.976553    0.469333    0.982725 Biso 1.000000  C     
 C16    1.0    0.023447    0.469333    0.482725 Biso 1.000000  C     
 C17    1.0    0.263650    0.636547    0.312834 Biso 1.000000  C     
 C18    1.0    0.736350    0.817506    0.854423 Biso 1.000000  C     
 C19    1.0    0.763650    0.136547    0.812834 Biso 1.000000  C     
 C20    1.0    0.236350    0.317506    0.354423 Biso 1.000000  C     
 H1     1.0    0.352200    0.855659    0.332314 Biso 1.000000  H     
 H2     1.0    0.647800    0.739579    0.554686 Biso 1.000000  H     
 H3     1.0    0.852200    0.355659    0.832314 Biso 1.000000  H     
 H4     1.0    0.147800    0.239579    0.054686 Biso 1.000000  H     
 H5     1.0    0.154950    0.902610    0.279581 Biso 1.000000  H     
 H6     1.0    0.845050    0.684271    0.501959 Biso 1.000000  H     
 H7     1.0    0.654950    0.402610    0.779581 Biso 1.000000  H     
 H8     1.0    0.345050    0.184271    0.001959 Biso 1.000000  H     
 H9     1.0    0.181130    0.835750    0.452233 Biso 1.000000  H     
 H10    1.0    0.818870    0.829224    0.557333 Biso 1.000000  H     
 H11    1.0    0.681130    0.335750    0.952233 Biso 1.000000  H     
 H12    1.0    0.318870    0.329224    0.057333 Biso 1.000000  H     
 H13    1.0    0.151220    0.249768    0.757552 Biso 1.000000  H     
 H14    1.0    0.848780    0.249768    0.257552 Biso 1.000000  H     
 H15    1.0    0.651220    0.749768    0.257552 Biso 1.000000  H     
 H16    1.0    0.348780    0.749768    0.757552 Biso 1.000000  H     
 H17    1.0    0.447565    0.476468    0.451278 Biso 1.000000  H     
 H18    1.0    0.552435    0.476468    0.951278 Biso 1.000000  H     
 H19    1.0    0.947565   -0.023532    0.951278 Biso 1.000000  H     
 H20    1.0    0.052435   -0.023532    0.451278 Biso 1.000000  H     
 H21    1.0    0.061495    0.506068    0.070098 Biso 1.000000  H     
 H22    1.0    0.938505    0.506068    0.570098 Biso 1.000000  H     
 H23    1.0    0.561495    0.006068    0.570098 Biso 1.000000  H     
 H24    1.0    0.438505    0.006068    0.070098 Biso 1.000000  H     
 H25    1.0    0.242550    0.734228    0.128535 Biso 1.000000  H     
 H26    1.0    0.757450    0.651830    0.759795 Biso 1.000000  H     
 H27    1.0    0.742550    0.234228    0.628535 Biso 1.000000  H     
 H28    1.0    0.257450    0.151830    0.259795 Biso 1.000000  H     
 H29    1.0    0.066180    0.715879    0.227860 Biso 1.000000  H     
 H30    1.0    0.933820    0.726853    0.764496 Biso 1.000000  H     
 H31    1.0    0.566180    0.215879    0.727860 Biso 1.000000  H     
 H32    1.0    0.433820    0.226853    0.264496 Biso 1.000000  H     
 H33    1.0    0.235560    0.559359    0.240335 Biso 1.000000  H     
 H34    1.0    0.764440    0.800424    0.973275 Biso 1.000000  H     
 H35    1.0    0.735560    0.059359    0.740335 Biso 1.000000  H     
 H36    1.0    0.264440    0.300424    0.473275 Biso 1.000000  H     
 H37    1.0    0.395190    0.647443    0.320382 Biso 1.000000  H     
 H38    1.0    0.604810    0.818095    0.838188 Biso 1.000000  H     
 H39    1.0    0.895190    0.147443    0.820382 Biso 1.000000  H     
 H40    1.0    0.104810    0.318095    0.338188 Biso 1.000000  H     
 H41    1.0    0.213030    0.636681    0.430053 Biso 1.000000  H     
 H42    1.0    0.786970    0.896982    0.830556 Biso 1.000000  H     
 H43    1.0    0.713030    0.136681    0.930053 Biso 1.000000  H     
 H44    1.0    0.286970    0.396982    0.330556 Biso 1.000000  H     
 N1     1.0    0.192040    0.730256    0.240295 Biso 1.000000  N     
 N2     1.0    0.807960    0.729310    0.742573 Biso 1.000000  N     
 N3     1.0    0.692040    0.230256    0.740295 Biso 1.000000  N     
 N4     1.0    0.307960    0.229310    0.242573 Biso 1.000000  N     
